 Data for JOB [42898,1] offset 0

 ========================   JOB MAP   ========================

 Data for node: ivb106	Num slots: 4	Max slots: 0	Num procs: 4
 	Process OMPI jobid: [42898,1] App: 0 Process rank: 0
 	Process OMPI jobid: [42898,1] App: 0 Process rank: 1
 	Process OMPI jobid: [42898,1] App: 0 Process rank: 2
 	Process OMPI jobid: [42898,1] App: 0 Process rank: 3

 =============================================================
[ivb106:11264] MCW rank 2 bound to socket 0[core 2[hwt 0]]: [././B/././././././.][./././././././././.]
[ivb106:11264] MCW rank 3 bound to socket 0[core 3[hwt 0]]: [./././B/./././././.][./././././././././.]
[ivb106:11264] MCW rank 0 bound to socket 0[core 0[hwt 0]]: [B/././././././././.][./././././././././.]
[ivb106:11264] MCW rank 1 bound to socket 0[core 1[hwt 0]]: [./B/./././././././.][./././././././././.]
/*---------------------------------------------------------------------------*\
| =========                 |                                                 |
| \\      /  F ield         | foam-extend: Open Source CFD                    |
|  \\    /   O peration     | Version:     3.1                                |
|   \\  /    A nd           | Web:         http://www.extend-project.de       |
|    \\/     M anipulation  |                                                 |
\*---------------------------------------------------------------------------*/
Build    : 3.1-e2da948002a2
Exec     : interFoam -parallel
Date     : May 16 2016
Time     : 07:55:43
Host     : ivb106
PID      : 11295
CtrlDict : /home-2/vplatonov/foam/foam-extend-3.1/etc/controlDict
Case     : /home/vplatonov/tests/rt12mln
nProcs   : 4
Slaves : 
3
(
ivb106.11300
ivb106.11305
ivb106.11294
)

Pstream initialized with:
    floatTransfer     : 0
    nProcsSimpleSum   : 0
    commsType         : blocking
SigFpe   : Enabling floating point exception trapping (FOAM_SIGFPE).

// * * * * * * * * * * * * * * * * * * * * * * * * * * * * * * * * * * * * * //
Create time

Create mesh for time = 0


Reading g
Reading field pd

Reading field alpha1

Reading field U

Reading/calculating face flux field phi

Reading transportProperties

Selecting incompressible transport model Newtonian
Selecting incompressible transport model Newtonian
Calculating field g.h

Selecting turbulence model type laminar
time step continuity errors : sum local = 0, global = 0, cumulative = 0
Created persistent data with name pcorr
SGPUBICGS:  Solving for pcorr, Initial residual = 0, Final residual = 0, No Iterations 0
time step continuity errors : sum local = 0, global = 0, cumulative = 0
Courant Number mean: 0 max: 0 velocity magnitude: 0

Starting time loop

Courant Number mean: 0 max: 0 velocity magnitude: 0
Time = 0.001

MULES: Solving for alpha1
Liquid phase volume fraction = 0.00275421  Min(alpha1) = 0  Max(alpha1) = 1
MULES: Solving for alpha1
Liquid phase volume fraction = 0.00275421  Min(alpha1) = 0  Max(alpha1) = 1
Created persistent data with name pd
Computing AINV with droptol 0.02
GPU: 2 iters: 0.0929928 s: 30.6558 GB/s
Total exec time 0.0929928
 Total comm time 0.0036992Pre time 0 Post time 0.0036992
SGPUBICGS:  Solving for pd, Initial residual = 1, Final residual = 0.048381, No Iterations 2
Computing AINV with droptol 0.02
GPU: 30 iters: 1.0838 s: 39.4552 GB/s
Total exec time 1.17679
 Total comm time 0.0379112Pre time 0 Post time 0.0379112
SGPUBICGS:  Solving for pd, Initial residual = 0.0328058, Final residual = 0.00134775, No Iterations 30
GPU: 581 iters: 20.4341 s: 40.5278 GB/s
Total exec time 21.6109
 Total comm time 0.641195Pre time 0 Post time 0.641195
SGPUBICGS:  Solving for pd, Initial residual = 0.0125474, Final residual = 7.05461e-08, No Iterations 581
time step continuity errors : sum local = 6.61427e-12, global = -2.09918e-24, cumulative = -2.09918e-24
ExecutionTime = 111.35 s  ClockTime = 121 s

Courant Number mean: 4.8582e-06 max: 0.00215161 velocity magnitude: 0.0336189
Time = 0.002

MULES: Solving for alpha1
Liquid phase volume fraction = 0.00275421  Min(alpha1) = 0  Max(alpha1) = 1
MULES: Solving for alpha1
Liquid phase volume fraction = 0.00275421  Min(alpha1) = 0  Max(alpha1) = 1
GPU: 48 iters: 1.70396 s: 40.1526 GB/s
Total exec time 23.3149
 Total comm time 0.695223Pre time 0 Post time 0.695223
SGPUBICGS:  Solving for pd, Initial residual = 0.00383313, Final residual = 0.000187341, No Iterations 48
GPU: 109 iters: 3.84704 s: 40.3861 GB/s
Total exec time 27.1619
 Total comm time 0.810095Pre time 0 Post time 0.810095
SGPUBICGS:  Solving for pd, Initial residual = 0.00221795, Final residual = 0.000110606, No Iterations 109
GPU: 583 iters: 20.519 s: 40.4991 GB/s
Total exec time 47.6809
 Total comm time 1.39524Pre time 0 Post time 1.39524
SGPUBICGS:  Solving for pd, Initial residual = 0.00198809, Final residual = 2.34804e-08, No Iterations 583
time step continuity errors : sum local = 1.7368e-12, global = -4.00149e-26, cumulative = -2.13919e-24
ExecutionTime = 169.34 s  ClockTime = 179 s

Courant Number mean: 7.65484e-06 max: 0.00312326 velocity magnitude: 0.0488009
Time = 0.003

MULES: Solving for alpha1
Liquid phase volume fraction = 0.00275421  Min(alpha1) = -3.82203e-31  Max(alpha1) = 1
MULES: Solving for alpha1
Liquid phase volume fraction = 0.00275421  Min(alpha1) = -1.86132e-30  Max(alpha1) = 1
GPU: 81 iters: 2.87317 s: 40.1843 GB/s
Total exec time 50.554
 Total comm time 1.4776Pre time 0 Post time 1.4776
SGPUBICGS:  Solving for pd, Initial residual = 0.0042509, Final residual = 0.000210603, No Iterations 81
GPU: 63 iters: 2.23441 s: 40.1893 GB/s
Total exec time 52.7884
 Total comm time 1.53951Pre time 0 Post time 1.53951
SGPUBICGS:  Solving for pd, Initial residual = 0.00315489, Final residual = 0.000153095, No Iterations 63
GPU: 566 iters: 19.9215 s: 40.4973 GB/s
Total exec time 72.7099
 Total comm time 2.10071Pre time 0 Post time 2.10071
SGPUBICGS:  Solving for pd, Initial residual = 0.00264425, Final residual = 9.68461e-08, No Iterations 566
time step continuity errors : sum local = 5.92294e-12, global = -1.58791e-24, cumulative = -3.7271e-24
ExecutionTime = 226.17 s  ClockTime = 236 s

Courant Number mean: 1.355e-05 max: 0.00481454 velocity magnitude: 0.0752272
Time = 0.004

MULES: Solving for alpha1
Liquid phase volume fraction = 0.00275421  Min(alpha1) = -3.73642e-30  Max(alpha1) = 1
MULES: Solving for alpha1
Liquid phase volume fraction = 0.00275421  Min(alpha1) = -8.31591e-30  Max(alpha1) = 1
GPU: 51 iters: 1.8142 s: 40.0698 GB/s
Total exec time 74.5241
 Total comm time 2.15434Pre time 0 Post time 2.15434
SGPUBICGS:  Solving for pd, Initial residual = 0.003432, Final residual = 0.000171416, No Iterations 51
GPU: 60 iters: 2.13096 s: 40.1335 GB/s
Total exec time 76.6551
 Total comm time 2.21623Pre time 0 Post time 2.21623
SGPUBICGS:  Solving for pd, Initial residual = 0.00328311, Final residual = 0.000162852, No Iterations 60
GPU: 539 iters: 18.9743 s: 40.4908 GB/s
Total exec time 95.6294
 Total comm time 2.72727Pre time 0 Post time 2.72727
SGPUBICGS:  Solving for pd, Initial residual = 0.0025167, Final residual = 9.81952e-08, No Iterations 539
time step continuity errors : sum local = 9.16946e-12, global = -1.10236e-24, cumulative = -4.82946e-24
ExecutionTime = 280.67 s  ClockTime = 290 s

Courant Number mean: 1.92256e-05 max: 0.00596556 velocity magnitude: 0.0932118
Time = 0.005

MULES: Solving for alpha1
Liquid phase volume fraction = 0.00275421  Min(alpha1) = -1.38804e-29  Max(alpha1) = 1
MULES: Solving for alpha1
Liquid phase volume fraction = 0.00275421  Min(alpha1) = -1.59303e-29  Max(alpha1) = 1
GPU: 90 iters: 3.17878 s: 40.3566 GB/s
Total exec time 98.8081
 Total comm time 2.82352Pre time 0 Post time 2.82352
SGPUBICGS:  Solving for pd, Initial residual = 0.00218077, Final residual = 0.000105736, No Iterations 90
GPU: 65 iters: 2.30856 s: 40.1333 GB/s
Total exec time 101.117
 Total comm time 2.8872Pre time 0 Post time 2.8872
SGPUBICGS:  Solving for pd, Initial residual = 0.00182522, Final residual = 8.8574e-05, No Iterations 65
GPU: 633 iters: 22.2625 s: 40.5286 GB/s
Total exec time 123.379
 Total comm time 3.53873Pre time 0 Post time 3.53873
SGPUBICGS:  Solving for pd, Initial residual = 0.00145737, Final residual = 6.86994e-08, No Iterations 633
time step continuity errors : sum local = 5.93031e-12, global = -7.64811e-24, cumulative = -1.24776e-23
ExecutionTime = 340.28 s  ClockTime = 350 s

Courant Number mean: 2.43654e-05 max: 0.00682589 velocity magnitude: 0.106655
Time = 0.006

MULES: Solving for alpha1
Liquid phase volume fraction = 0.00275421  Min(alpha1) = -3.52994e-29  Max(alpha1) = 1
MULES: Solving for alpha1
Liquid phase volume fraction = 0.00275421  Min(alpha1) = -3.64907e-29  Max(alpha1) = 1
GPU: 90 iters: 3.19177 s: 40.1923 GB/s
Total exec time 126.571
 Total comm time 3.63581Pre time 0 Post time 3.63581
SGPUBICGS:  Solving for pd, Initial residual = 0.00225976, Final residual = 0.0001128, No Iterations 90
GPU: 74 iters: 2.62365 s: 40.2029 GB/s
Total exec time 129.195
 Total comm time 3.71488Pre time 0 Post time 3.71488
SGPUBICGS:  Solving for pd, Initial residual = 0.00122552, Final residual = 6.01623e-05, No Iterations 74
GPU: 334 iters: 11.7511 s: 40.5135 GB/s
Total exec time 140.946
 Total comm time 4.05315Pre time 0 Post time 4.05315
SGPUBICGS:  Solving for pd, Initial residual = 0.000732486, Final residual = 9.93884e-08, No Iterations 334
time step continuity errors : sum local = 6.21633e-12, global = -1.39559e-24, cumulative = -1.38732e-23
ExecutionTime = 389.67 s  ClockTime = 399 s

Courant Number mean: 2.94798e-05 max: 0.00762959 velocity magnitude: 0.119212
Time = 0.007

MULES: Solving for alpha1
Liquid phase volume fraction = 0.00275421  Min(alpha1) = -7.4874e-29  Max(alpha1) = 1
MULES: Solving for alpha1
Liquid phase volume fraction = 0.00275421  Min(alpha1) = -5.22304e-29  Max(alpha1) = 1
GPU: 88 iters: 3.11741 s: 40.2366 GB/s
Total exec time 144.063
 Total comm time 4.14146Pre time 0 Post time 4.14146
SGPUBICGS:  Solving for pd, Initial residual = 0.00231785, Final residual = 0.000115638, No Iterations 88
GPU: 72 iters: 2.54977 s: 40.2498 GB/s
Total exec time 146.613
 Total comm time 4.20485Pre time 0 Post time 4.20485
SGPUBICGS:  Solving for pd, Initial residual = 0.00114264, Final residual = 5.63838e-05, No Iterations 72
GPU: 385 iters: 13.5509 s: 40.4973 GB/s
Total exec time 160.164
 Total comm time 4.60301Pre time 0 Post time 4.60301
SGPUBICGS:  Solving for pd, Initial residual = 0.000566165, Final residual = 6.78518e-08, No Iterations 385
time step continuity errors : sum local = 5.7176e-12, global = -5.51281e-24, cumulative = -1.9386e-23
ExecutionTime = 440.72 s  ClockTime = 450 s

Courant Number mean: 3.46002e-05 max: 0.00833693 velocity magnitude: 0.130265
Time = 0.008

MULES: Solving for alpha1
Liquid phase volume fraction = 0.00275421  Min(alpha1) = -4.14041e-29  Max(alpha1) = 1
MULES: Solving for alpha1
Liquid phase volume fraction = 0.00275421  Min(alpha1) = -6.56412e-29  Max(alpha1) = 1
GPU: 86 iters: 3.0457 s: 40.2479 GB/s
Total exec time 163.209
 Total comm time 4.69952Pre time 0 Post time 4.69952
SGPUBICGS:  Solving for pd, Initial residual = 0.00236096, Final residual = 0.000116791, No Iterations 86
GPU: 82 iters: 2.90709 s: 40.2056 GB/s
Total exec time 166.117
 Total comm time 4.77798Pre time 0 Post time 4.77798
SGPUBICGS:  Solving for pd, Initial residual = 0.00111307, Final residual = 5.19172e-05, No Iterations 82
GPU: 358 iters: 12.6049 s: 40.4833 GB/s
Total exec time 178.721
 Total comm time 5.12513Pre time 0 Post time 5.12513
SGPUBICGS:  Solving for pd, Initial residual = 0.000479729, Final residual = 9.89633e-08, No Iterations 358
time step continuity errors : sum local = 8.02189e-12, global = 6.54851e-24, cumulative = -1.28375e-23
ExecutionTime = 491.05 s  ClockTime = 501 s

Courant Number mean: 3.9735e-05 max: 0.00902761 velocity magnitude: 0.140182
Time = 0.009

MULES: Solving for alpha1
Liquid phase volume fraction = 0.00275421  Min(alpha1) = -3.67658e-29  Max(alpha1) = 1
MULES: Solving for alpha1
Liquid phase volume fraction = 0.00275421  Min(alpha1) = -5.20533e-29  Max(alpha1) = 1
GPU: 82 iters: 2.90849 s: 40.1863 GB/s
Total exec time 181.63
 Total comm time 5.21347Pre time 0 Post time 5.21347
SGPUBICGS:  Solving for pd, Initial residual = 0.00241622, Final residual = 0.000120436, No Iterations 82
GPU: 77 iters: 2.72908 s: 40.2167 GB/s
Total exec time 184.359
 Total comm time 5.28554Pre time 0 Post time 5.28554
SGPUBICGS:  Solving for pd, Initial residual = 0.00107361, Final residual = 5.3626e-05, No Iterations 77
GPU: 557 iters: 19.5946 s: 40.5183 GB/s
Total exec time 203.954
 Total comm time 5.84638Pre time 0 Post time 5.84638
SGPUBICGS:  Solving for pd, Initial residual = 0.000403941, Final residual = 6.50795e-08, No Iterations 557
time step continuity errors : sum local = 3.06326e-12, global = 3.42291e-24, cumulative = -9.41456e-24
ExecutionTime = 547.8 s  ClockTime = 558 s

Courant Number mean: 4.48894e-05 max: 0.00970837 velocity magnitude: 0.149192
Time = 0.01

MULES: Solving for alpha1
Liquid phase volume fraction = 0.00275421  Min(alpha1) = -2.83431e-29  Max(alpha1) = 1
MULES: Solving for alpha1
Liquid phase volume fraction = 0.00275421  Min(alpha1) = -3.09632e-29  Max(alpha1) = 1
GPU: 81 iters: 2.87173 s: 40.2043 GB/s
Total exec time 206.825
 Total comm time 5.91391Pre time 0 Post time 5.91391
SGPUBICGS:  Solving for pd, Initial residual = 0.00258075, Final residual = 0.000121997, No Iterations 81
GPU: 82 iters: 2.91002 s: 40.1652 GB/s
Total exec time 209.735
 Total comm time 5.99087Pre time 0 Post time 5.99087
SGPUBICGS:  Solving for pd, Initial residual = 0.0010585, Final residual = 4.06049e-05, No Iterations 82
GPU: 553 iters: 19.4486 s: 40.5292 GB/s
Total exec time 229.184
 Total comm time 6.55335Pre time 0 Post time 6.55335
SGPUBICGS:  Solving for pd, Initial residual = 0.000341859, Final residual = 9.77071e-08, No Iterations 553
time step continuity errors : sum local = 7.49049e-12, global = 1.03545e-23, cumulative = 9.39953e-25
ExecutionTime = 604.64 s  ClockTime = 615 s

End

Finalising parallel run
