 Data for JOB [28483,1] offset 0

 ========================   JOB MAP   ========================

 Data for node: ivb109	Num slots: 3	Max slots: 0	Num procs: 3
 	Process OMPI jobid: [28483,1] App: 0 Process rank: 0
 	Process OMPI jobid: [28483,1] App: 0 Process rank: 1
 	Process OMPI jobid: [28483,1] App: 0 Process rank: 2

 Data for node: ivb110	Num slots: 3	Max slots: 0	Num procs: 3
 	Process OMPI jobid: [28483,1] App: 0 Process rank: 3
 	Process OMPI jobid: [28483,1] App: 0 Process rank: 4
 	Process OMPI jobid: [28483,1] App: 0 Process rank: 5

 =============================================================
[ivb109:33443] MCW rank 0 bound to socket 0[core 0[hwt 0]]: [B/././././././././.][./././././././././.]
[ivb109:33443] MCW rank 1 bound to socket 0[core 1[hwt 0]]: [./B/./././././././.][./././././././././.]
[ivb109:33443] MCW rank 2 bound to socket 0[core 2[hwt 0]]: [././B/././././././.][./././././././././.]
[ivb110:34088] MCW rank 3 bound to socket 0[core 0[hwt 0]]: [B/././././././././.][./././././././././.]
[ivb110:34088] MCW rank 4 bound to socket 0[core 1[hwt 0]]: [./B/./././././././.][./././././././././.]
[ivb110:34088] MCW rank 5 bound to socket 0[core 2[hwt 0]]: [././B/././././././.][./././././././././.]
0
1
2
0
1
2
/*---------------------------------------------------------------------------*\
| =========                 |                                                 |
| \\      /  F ield         | foam-extend: Open Source CFD                    |
|  \\    /   O peration     | Version:     3.1                                |
|   \\  /    A nd           | Web:         http://www.extend-project.de       |
|    \\/     M anipulation  |                                                 |
\*---------------------------------------------------------------------------*/
Build    : 3.1-e2da948002a2
Exec     : interFoam -parallel
Date     : May 16 2016
Time     : 08:39:48
Host     : ivb109
PID      : 33486
CtrlDict : /home-2/vplatonov/foam/foam-extend-3.1/etc/controlDict
Case     : /home/vplatonov/tests/rt12mln
nProcs   : 6
Slaves : 
5
(
ivb109.33481
ivb109.33479
ivb110.34122
ivb110.34117
ivb110.34115
)

Pstream initialized with:
    floatTransfer     : 0
    nProcsSimpleSum   : 0
    commsType         : blocking
SigFpe   : Enabling floating point exception trapping (FOAM_SIGFPE).

// * * * * * * * * * * * * * * * * * * * * * * * * * * * * * * * * * * * * * //
Create time

Create mesh for time = 0


Reading g
Reading field pd

Reading field alpha1

Reading field U

Reading/calculating face flux field phi

Reading transportProperties

Selecting incompressible transport model Newtonian
Selecting incompressible transport model Newtonian
Calculating field g.h

Selecting turbulence model type laminar
time step continuity errors : sum local = 0, global = 0, cumulative = 0
Created persistent data with name pcorr
SGPUBICGS:  Solving for pcorr, Initial residual = 0, Final residual = 0, No Iterations 0
time step continuity errors : sum local = 0, global = 0, cumulative = 0
Courant Number mean: 0 max: 0 velocity magnitude: 0

Starting time loop

Courant Number mean: 0 max: 0 velocity magnitude: 0
Time = 0.001

MULES: Solving for alpha1
Liquid phase volume fraction = 0.00275421  Min(alpha1) = 0  Max(alpha1) = 1
MULES: Solving for alpha1
Liquid phase volume fraction = 0.00275421  Min(alpha1) = 0  Max(alpha1) = 1
Created persistent data with name pd
Computing AINV with droptol 0.02
GPU: 2 iters: 0.0408562 s: 46.5288 GB/s
Total exec time 0.0408562
 Total comm time 1.6e-05Pre time 0 Post time 1.6e-05
SGPUBICGS:  Solving for pd, Initial residual = 1, Final residual = 0.0487452, No Iterations 2
Computing AINV with droptol 0.02
GPU: 27 iters: 0.41591 s: 61.7041 GB/s
Total exec time 0.456766
 Total comm time 0.000680736Pre time 0 Post time 0.000680736
SGPUBICGS:  Solving for pd, Initial residual = 0.0329437, Final residual = 0.00159096, No Iterations 27
GPU: 616 iters: 9.22307 s: 63.4826 GB/s
Total exec time 9.67983
 Total comm time 0.0162975Pre time 0 Post time 0.0162975
SGPUBICGS:  Solving for pd, Initial residual = 0.0128911, Final residual = 1.79315e-08, No Iterations 616
time step continuity errors : sum local = 1.87302e-12, global = -3.12771e-24, cumulative = -3.12771e-24
ExecutionTime = 71.05 s  ClockTime = 84 s

Courant Number mean: 4.82187e-06 max: 0.00215159 velocity magnitude: 0.0336186
Time = 0.002

MULES: Solving for alpha1
Liquid phase volume fraction = 0.00275421  Min(alpha1) = 0  Max(alpha1) = 1
MULES: Solving for alpha1
Liquid phase volume fraction = 0.00275421  Min(alpha1) = 0  Max(alpha1) = 1
GPU: 469 iters: 7.04943 s: 63.2366 GB/s
Total exec time 16.7293
 Total comm time 0.0409358Pre time 0 Post time 0.0409358
SGPUBICGS:  Solving for pd, Initial residual = 0.00503781, Final residual = 0.000144388, No Iterations 469
GPU: 499 iters: 7.47435 s: 63.4566 GB/s
Total exec time 24.2036
 Total comm time 0.0586431Pre time 0 Post time 0.0586431
SGPUBICGS:  Solving for pd, Initial residual = 0.00382706, Final residual = 0.000139732, No Iterations 499
GPU: 635 iters: 9.50691 s: 63.4869 GB/s
Total exec time 33.7105
 Total comm time 0.0787526Pre time 0 Post time 0.0787526
SGPUBICGS:  Solving for pd, Initial residual = 0.00338386, Final residual = 9.2552e-08, No Iterations 635
time step continuity errors : sum local = 4.1112e-08, global = -4.11108e-08, cumulative = -4.11108e-08
ExecutionTime = 115.28 s  ClockTime = 128 s

Courant Number mean: 1.34977e-05 max: 0.219744 velocity magnitude: 1.71675
Time = 0.003

MULES: Solving for alpha1
Liquid phase volume fraction = 0.00275424  Min(alpha1) = -1.21485e-30  Max(alpha1) = 1
MULES: Solving for alpha1
Liquid phase volume fraction = 0.00275426  Min(alpha1) = -1.72169e-30  Max(alpha1) = 1
GPU: 574 iters: 8.59723 s: 63.4604 GB/s
Total exec time 42.3077
 Total comm time 0.0983553Pre time 0 Post time 0.0983553
SGPUBICGS:  Solving for pd, Initial residual = 0.00739659, Final residual = 0.000265211, No Iterations 574
GPU: 501 iters: 7.50816 s: 63.424 GB/s
Total exec time 49.8159
 Total comm time 0.112936Pre time 0 Post time 0.112936
SGPUBICGS:  Solving for pd, Initial residual = 0.0051267, Final residual = 4.8222e-05, No Iterations 501
GPU: 636 iters: 9.51352 s: 63.5427 GB/s
Total exec time 59.3294
 Total comm time 0.133261Pre time 0 Post time 0.133261
SGPUBICGS:  Solving for pd, Initial residual = 0.00495149, Final residual = 9.79742e-08, No Iterations 636
time step continuity errors : sum local = 2.22717e-08, global = -2.22627e-08, cumulative = -6.33735e-08
ExecutionTime = 161.2 s  ClockTime = 175 s

Courant Number mean: 1.62979e-05 max: 0.132595 velocity magnitude: 1.0359
Time = 0.004

MULES: Solving for alpha1
Liquid phase volume fraction = 0.00275427  Min(alpha1) = -5.61984e-30  Max(alpha1) = 1
MULES: Solving for alpha1
Liquid phase volume fraction = 0.00275428  Min(alpha1) = -1.01488e-29  Max(alpha1) = 1
GPU: 615 iters: 9.19 s: 63.6076 GB/s
Total exec time 68.5194
 Total comm time 0.151884Pre time 0 Post time 0.151884
SGPUBICGS:  Solving for pd, Initial residual = 0.0084165, Final residual = 0.000400939, No Iterations 615
GPU: 256 iters: 3.8398 s: 63.3695 GB/s
Total exec time 72.3592
 Total comm time 0.159293Pre time 0 Post time 0.159293
SGPUBICGS:  Solving for pd, Initial residual = 0.00730316, Final residual = 0.000232703, No Iterations 256
GPU: 638 iters: 9.55977 s: 63.4341 GB/s
Total exec time 81.919
 Total comm time 0.175814Pre time 0 Post time 0.175814
SGPUBICGS:  Solving for pd, Initial residual = 0.00669364, Final residual = 8.72588e-08, No Iterations 638
time step continuity errors : sum local = 1.05217e-08, global = -1.05136e-08, cumulative = -7.38871e-08
ExecutionTime = 204.34 s  ClockTime = 218 s

Courant Number mean: 2.02595e-05 max: 0.0739224 velocity magnitude: 0.577519
Time = 0.005

MULES: Solving for alpha1
Liquid phase volume fraction = 0.00275429  Min(alpha1) = -1.34952e-29  Max(alpha1) = 1
MULES: Solving for alpha1
Liquid phase volume fraction = 0.00275429  Min(alpha1) = -1.74015e-29  Max(alpha1) = 1
GPU: 457 iters: 6.83016 s: 63.5968 GB/s
Total exec time 88.7492
 Total comm time 0.187179Pre time 0 Post time 0.187179
SGPUBICGS:  Solving for pd, Initial residual = 0.0067409, Final residual = 0.000218501, No Iterations 457
GPU: 74 iters: 1.11896 s: 62.8589 GB/s
Total exec time 89.8681
 Total comm time 0.189095Pre time 0 Post time 0.189095
SGPUBICGS:  Solving for pd, Initial residual = 0.00576519, Final residual = 0.000287686, No Iterations 74
GPU: 569 iters: 8.52158 s: 63.4661 GB/s
Total exec time 98.3897
 Total comm time 0.20305Pre time 0 Post time 0.20305
SGPUBICGS:  Solving for pd, Initial residual = 0.00565619, Final residual = 9.37554e-08, No Iterations 569
time step continuity errors : sum local = 2.48061e-09, global = -2.47601e-09, cumulative = -7.63631e-08
ExecutionTime = 241.13 s  ClockTime = 255 s

Courant Number mean: 2.43668e-05 max: 0.0261312 velocity magnitude: 0.296816
Time = 0.006

MULES: Solving for alpha1
Liquid phase volume fraction = 0.00275429  Min(alpha1) = -2.37821e-29  Max(alpha1) = 1
MULES: Solving for alpha1
Liquid phase volume fraction = 0.00275429  Min(alpha1) = -3.63006e-29  Max(alpha1) = 1
GPU: 536 iters: 8.01946 s: 63.5286 GB/s
Total exec time 106.409
 Total comm time 0.217818Pre time 0 Post time 0.217818
SGPUBICGS:  Solving for pd, Initial residual = 0.00740045, Final residual = 0.000369033, No Iterations 536
GPU: 502 iters: 7.51477 s: 63.4947 GB/s
Total exec time 113.924
 Total comm time 0.231313Pre time 0 Post time 0.231313
SGPUBICGS:  Solving for pd, Initial residual = 0.00577036, Final residual = 6.53927e-05, No Iterations 502
GPU: 1000 iters: 14.9482 s: 63.586 GB/s
Total exec time 128.872
 Total comm time 0.25759Pre time 0 Post time 0.25759
SGPUBICGS:  Solving for pd, Initial residual = 0.00539008, Final residual = 1.34691e-07, No Iterations 1000
time step continuity errors : sum local = 9.4946e-12, global = 9.4946e-12, cumulative = -7.63536e-08
ExecutionTime = 292.1 s  ClockTime = 307 s

Courant Number mean: 2.92882e-05 max: 0.0331759 velocity magnitude: 0.259187
Time = 0.007

MULES: Solving for alpha1
Liquid phase volume fraction = 0.00275429  Min(alpha1) = -6.06903e-29  Max(alpha1) = 1
MULES: Solving for alpha1
Liquid phase volume fraction = 0.00275429  Min(alpha1) = -2.66168e-29  Max(alpha1) = 1
GPU: 486 iters: 7.28929 s: 63.3725 GB/s
Total exec time 136.161
 Total comm time 0.276111Pre time 0 Post time 0.276111
SGPUBICGS:  Solving for pd, Initial residual = 0.00706089, Final residual = 0.000317217, No Iterations 486
GPU: 462 iters: 6.9096 s: 63.5534 GB/s
Total exec time 143.071
 Total comm time 0.29226Pre time 0 Post time 0.29226
SGPUBICGS:  Solving for pd, Initial residual = 0.00462686, Final residual = 8.66739e-05, No Iterations 462
GPU: 578 iters: 8.67188 s: 63.3525 GB/s
Total exec time 151.743
 Total comm time 0.310279Pre time 0 Post time 0.310279
SGPUBICGS:  Solving for pd, Initial residual = 0.00408245, Final residual = 1.63031e-08, No Iterations 578
time step continuity errors : sum local = 1.42363e-10, global = 1.40939e-10, cumulative = -7.62127e-08
ExecutionTime = 335.26 s  ClockTime = 350 s

Courant Number mean: 3.43768e-05 max: 0.00833673 velocity magnitude: 0.130261
Time = 0.008

MULES: Solving for alpha1
Liquid phase volume fraction = 0.00275429  Min(alpha1) = -4.6796e-29  Max(alpha1) = 1
MULES: Solving for alpha1
Liquid phase volume fraction = 0.00275429  Min(alpha1) = -1.33315e-29  Max(alpha1) = 1
GPU: 510 iters: 7.64526 s: 63.4056 GB/s
Total exec time 159.388
 Total comm time 0.324331Pre time 0 Post time 0.324331
SGPUBICGS:  Solving for pd, Initial residual = 0.00751656, Final residual = 0.000356908, No Iterations 510
GPU: 560 iters: 8.39685 s: 63.3901 GB/s
Total exec time 167.785
 Total comm time 0.341057Pre time 0 Post time 0.341057
SGPUBICGS:  Solving for pd, Initial residual = 0.00459081, Final residual = 0.000217857, No Iterations 560
GPU: 608 iters: 9.10629 s: 63.4617 GB/s
Total exec time 176.891
 Total comm time 0.36269Pre time 0 Post time 0.36269
SGPUBICGS:  Solving for pd, Initial residual = 0.00425588, Final residual = 3.89261e-08, No Iterations 608
time step continuity errors : sum local = 1.57928e-10, global = 1.56184e-10, cumulative = -7.60565e-08
ExecutionTime = 380.87 s  ClockTime = 396 s

Courant Number mean: 3.94842e-05 max: 0.00902702 velocity magnitude: 0.140178
Time = 0.009

MULES: Solving for alpha1
Liquid phase volume fraction = 0.00275429  Min(alpha1) = -3.06778e-29  Max(alpha1) = 1
MULES: Solving for alpha1
Liquid phase volume fraction = 0.00275429  Min(alpha1) = -4.10433e-29  Max(alpha1) = 1
GPU: 526 iters: 7.8748 s: 63.4886 GB/s
Total exec time 184.766
 Total comm time 0.381875Pre time 0 Post time 0.381875
SGPUBICGS:  Solving for pd, Initial residual = 0.00744153, Final residual = 0.000220893, No Iterations 526
GPU: 534 iters: 8.01236 s: 63.3476 GB/s
Total exec time 192.778
 Total comm time 0.40182Pre time 0 Post time 0.40182
SGPUBICGS:  Solving for pd, Initial residual = 0.00458076, Final residual = 0.00018925, No Iterations 534
GPU: 632 iters: 9.45303 s: 63.5471 GB/s
Total exec time 202.231
 Total comm time 0.424539Pre time 0 Post time 0.424539
SGPUBICGS:  Solving for pd, Initial residual = 0.00426009, Final residual = 9.51958e-08, No Iterations 632
time step continuity errors : sum local = 5.93307e-12, global = 2.65254e-12, cumulative = -7.60538e-08
ExecutionTime = 426.47 s  ClockTime = 442 s

Courant Number mean: 4.46005e-05 max: 0.00970779 velocity magnitude: 0.149187
Time = 0.01

MULES: Solving for alpha1
Liquid phase volume fraction = 0.00275429  Min(alpha1) = -3.00315e-29  Max(alpha1) = 1
MULES: Solving for alpha1
Liquid phase volume fraction = 0.00275429  Min(alpha1) = -4.04502e-29  Max(alpha1) = 1
GPU: 478 iters: 7.20109 s: 63.0927 GB/s
Total exec time 209.433
 Total comm time 0.448694Pre time 0 Post time 0.448694
SGPUBICGS:  Solving for pd, Initial residual = 0.0081351, Final residual = 0.000302765, No Iterations 478
GPU: 429 iters: 6.45289 s: 63.1906 GB/s
Total exec time 215.885
 Total comm time 0.496285Pre time 0 Post time 0.496285
SGPUBICGS:  Solving for pd, Initial residual = 0.00558648, Final residual = 0.000244453, No Iterations 429
GPU: 642 iters: 9.59506 s: 63.597 GB/s
Total exec time 225.481
 Total comm time 0.509891Pre time 0 Post time 0.509891
SGPUBICGS:  Solving for pd, Initial residual = 0.0053456, Final residual = 9.92285e-08, No Iterations 642
time step continuity errors : sum local = 5.11674e-11, global = -4.21377e-11, cumulative = -7.6096e-08
ExecutionTime = 469.97 s  ClockTime = 486 s

End

Finalising parallel run
