 Data for JOB [48890,1] offset 0

 ========================   JOB MAP   ========================

 Data for node: ivb124	Num slots: 4	Max slots: 0	Num procs: 4
 	Process OMPI jobid: [48890,1] App: 0 Process rank: 0
 	Process OMPI jobid: [48890,1] App: 0 Process rank: 1
 	Process OMPI jobid: [48890,1] App: 0 Process rank: 2
 	Process OMPI jobid: [48890,1] App: 0 Process rank: 3

 =============================================================
[ivb124:21976] MCW rank 2 bound to socket 0[core 2[hwt 0]]: [././B/././././././.][./././././././././.]
[ivb124:21976] MCW rank 3 bound to socket 0[core 3[hwt 0]]: [./././B/./././././.][./././././././././.]
[ivb124:21976] MCW rank 0 bound to socket 0[core 0[hwt 0]]: [B/././././././././.][./././././././././.]
[ivb124:21976] MCW rank 1 bound to socket 0[core 1[hwt 0]]: [./B/./././././././.][./././././././././.]
0
1
2
3
/*---------------------------------------------------------------------------*\
| =========                 |                                                 |
| \\      /  F ield         | foam-extend: Open Source CFD                    |
|  \\    /   O peration     | Version:     3.1                                |
|   \\  /    A nd           | Web:         http://www.extend-project.de       |
|    \\/     M anipulation  |                                                 |
\*---------------------------------------------------------------------------*/
Build    : 3.1-e2da948002a2
Exec     : interFoam -parallel
Date     : May 25 2016
Time     : 17:57:48
Host     : ivb124
PID      : 22015
CtrlDict : /home-2/vplatonov/foam/foam-extend-3.1/etc/controlDict
Case     : /home/vplatonov/tests/rt12mln
nProcs   : 4
Slaves : 
3
(
ivb124.22011
ivb124.22020
ivb124.22010
)

Pstream initialized with:
    floatTransfer     : 0
    nProcsSimpleSum   : 0
    commsType         : blocking
SigFpe   : Enabling floating point exception trapping (FOAM_SIGFPE).

// * * * * * * * * * * * * * * * * * * * * * * * * * * * * * * * * * * * * * //
Create time

Create mesh for time = 0


Reading g
Reading field pd

Reading field alpha1

Reading field U

Reading/calculating face flux field phi

Reading transportProperties

Selecting incompressible transport model Newtonian
Selecting incompressible transport model Newtonian
Calculating field g.h

Selecting turbulence model type laminar
time step continuity errors : sum local = 0, global = 0, cumulative = 0
Created persistent data with name pcorr
GPUAMG:  Solving for pcorr, Initial residual = 0, Final residual = 0, No Iterations 0
time step continuity errors : sum local = 0, global = 0, cumulative = 0
Courant Number mean: 0 max: 0 velocity magnitude: 0

Starting time loop

Courant Number mean: 0 max: 0 velocity magnitude: 0
Time = 0.001

MULES: Solving for alpha1
Liquid phase volume fraction = 0.00275421  Min(alpha1) = 0  Max(alpha1) = 1
MULES: Solving for alpha1
Liquid phase volume fraction = 0.00275421  Min(alpha1) = 0  Max(alpha1) = 1
Created persistent data with name pd
[1] Building level 0
[2] Building level 0
[3] Building level 0
[0] Building level 0
Creating AMGLevel 
[1] Building level 1
[0] Building level 1
[3] Building level 1
[2] Building level 1
Creating AMGLevel 
[1] Building level 2
[0] Building level 2
[2] Building level 2
[3] Building level 2
Creating AMGLevel 
[1] Building level 3
[0] Building level 3
[3] Building level 3
[2] Building level 3
Creating AMGLevel 
[0] Building level 4
[1] Building level 4
[2] Building level 4
[3] Building level 4
Creating AMGLevel 
[0] Building level 5
[1] Building level 5
[2] Building level 5
[3] Building level 5
Creating AMGLevel 
[0] Building level 6
[1] Building level 6
[2] Building level 6
[3] Building level 6
Creating AMGLevel 
[0] Building level 7
[1] Building level 7
[2] Building level 7
[3] Building level 7
Creating AMGLevel 
[1] Building level 8
[0] Building level 8
[2] Building level 8
[3] Building level 8
[1] Building level 9
Creating AMGLevel 
[0] Building level 9
[1] Building level 10
Creating AMGLevel 
[0] Building level 10
[2] Building level 9
[3] Building level 9
[1] Building level 11
Creating AMGLevel 
[0] Building level 11
[1] Building level 12
Creating AMGLevel 
[0] Building level 12
[1] Building level 13
[2] Building level 10
Creating AMGLevel 
[0] Building level 13
[3] Building level 10
[1] Building level 14
Creating AMGLevel 
[0] Building level 14
Creating AMGLevel 
14 Level construction complete
[2] Building level 11
[3] Building level 11
[2] Building level 12
[3] Building level 12
[2] Building level 13
[3] Building level 13
[2] Building level 14
[3] Building level 14
initial dot_x = 0
Iter #1 residual = 0.0732926
GPU: 1 iters: 0.530176 s: 1.23438 GB/s
GPUAMG:  Solving for pd, Initial residual = 1, Final residual = 0.0271102, No Iterations 1
[2] Building level 0
[3] Building level 0
[1] Building level 0
[0] Building level 0
[3] Building level 1
[2] Building level 1
[1] Building level 1
[0] Building level 1
[0] Building level 2
[3] Building level 2
[2] Building level 2
[1] Building level 2
[3] Building level 3
[0] Building level 3
[1] Building level 3
[2] Building level 3
[3] Building level 4
[0] Building level 4
[2] Building level 4
[1] Building level 4
[3] Building level 5
[0] Building level 5
[1] Building level 5
[2] Building level 5
[3] Building level 6
[0] Building level 6
[1] Building level 6
[2] Building level 6
[3] Building level 7
[0] Building level 7
[0] Building level 8
[3] Building level 8
[1] Building level 7
[2] Building level 7
[0] Building level 9
[3] Building level 9
[0] Building level 10
[3] Building level 10
[0] Building level 11
[3] Building level 11
[0] Building level 12
[0] Building level 13
[3] Building level 12
[0] Building level 14
14 Level construction complete
[3] Building level 13
[3] Building level 14
[1] Building level 8
[2] Building level 8
[1] Building level 9
[2] Building level 9
[1] Building level 10
[2] Building level 10
[1] Building level 11
[1] Building level 12
[1] Building level 13
[2] Building level 11
[1] Building level 14
[2] Building level 12
[2] Building level 13
[2] Building level 14
initial dot_x = 75605.5
Iter #1 residual = 0.00835589
Iter #2 residual = 0.00430119
Iter #3 residual = 0.00229674
Iter #4 residual = 0.00122678
GPU: 4 iters: 1.30971 s: 1.99872 GB/s
GPUAMG:  Solving for pd, Initial residual = 0.019502, Final residual = 0.000642454, No Iterations 4
[3] Building level 0
[2] Building level 0
[1] Building level 0
[0] Building level 0
[3] Building level 1
[0] Building level 1
[2] Building level 1
[1] Building level 1
[0] Building level 2
[3] Building level 2
[2] Building level 2
[1] Building level 2
[0] Building level 3
[3] Building level 3
[1] Building level 3
[2] Building level 3
[0] Building level 4
[3] Building level 4
[1] Building level 4
[2] Building level 4
[0] Building level 5
[3] Building level 5
[1] Building level 5
[2] Building level 5
[0] Building level 6
[3] Building level 6
[1] Building level 6
[2] Building level 6
[0] Building level 7
[3] Building level 7
[0] Building level 8
[1] Building level 7
[3] Building level 8
[2] Building level 7
[0] Building level 9
[0] Building level 10
[3] Building level 9
[0] Building level 11
[0] Building level 12
[0] Building level 13
[0] Building level 14
[3] Building level 10
14 Level construction complete
[1] Building level 8
[3] Building level 11
[3] Building level 12
[3] Building level 13
[3] Building level 14
[2] Building level 8
[1] Building level 9
[1] Building level 10
[2] Building level 9
[1] Building level 11
[1] Building level 12
[1] Building level 13
[1] Building level 14
[2] Building level 10
[2] Building level 11
[2] Building level 12
[2] Building level 13
[2] Building level 14
initial dot_x = 127963
Iter #1 residual = 0.00249743
Iter #2 residual = 0.00114304
Iter #3 residual = 0.000554365
Iter #4 residual = 0.000276858
Iter #5 residual = 0.000144412
Iter #6 residual = 8.18131e-05
Iter #7 residual = 5.00785e-05
Iter #8 residual = 3.0898e-05
Iter #9 residual = 1.97516e-05
Iter #10 residual = 1.27409e-05
Iter #11 residual = 8.41373e-06
Iter #12 residual = 5.65676e-06
Iter #13 residual = 3.87401e-06
Iter #14 residual = 2.73333e-06
Iter #15 residual = 2.01774e-06
Iter #16 residual = 1.52243e-06
Iter #17 residual = 1.18333e-06
Iter #18 residual = 9.3323e-07
Iter #19 residual = 7.43005e-07
Iter #20 residual = 6.00129e-07
Iter #21 residual = 4.82098e-07
Iter #22 residual = 3.97236e-07
Iter #23 residual = 3.19454e-07
Iter #24 residual = 2.68405e-07
Iter #25 residual = 2.14342e-07
Iter #26 residual = 1.87399e-07
Iter #27 residual = 1.43738e-07
Iter #28 residual = 1.35786e-07
GPU: 28 iters: 7.63315 s: 2.40061 GB/s
GPUAMG:  Solving for pd, Initial residual = 0.00621854, Final residual = 9.69817e-08, No Iterations 28
time step continuity errors : sum local = 7.20471e-12, global = -9.17068e-25, cumulative = -9.17068e-25
ExecutionTime = 93.01 s  ClockTime = 105 s

Courant Number mean: 4.8759e-06 max: 0.00216224 velocity magnitude: 0.033785
Time = 0.002

MULES: Solving for alpha1
Liquid phase volume fraction = 0.00275421  Min(alpha1) = 0  Max(alpha1) = 1
MULES: Solving for alpha1
Liquid phase volume fraction = 0.00275421  Min(alpha1) = 0  Max(alpha1) = 1
[2] Building level 0
[3] Building level 0
[0] Building level 0
[1] Building level 0
[3] Building level 1
[2] Building level 1
[1] Building level 1
[0] Building level 1
Reconstruction on level 1
Creating AMGLevel 
[0] Building level 2
Reconstruction on level 2
[2] Building level 2
[1] Building level 2
[3] Building level 2
Creating AMGLevel 
[0] Building level 3
Reconstruction on level 3
[1] Building level 3
[3] Building level 3
[2] Building level 3
Creating AMGLevel 
[1] Building level 4
[0] Building level 4
Reconstruction on level 4
[3] Building level 4
[2] Building level 4
[1] Building level 5
Creating AMGLevel 
[0] Building level 5
Reconstruction on level 5
[3] Building level 5
[2] Building level 5
[1] Building level 6
Creating AMGLevel 
[0] Building level 6
Reconstruction on level 6
[3] Building level 6
[1] Building level 7
[2] Building level 6
Creating AMGLevel 
[0] Building level 7
Reconstruction on level 7
[1] Building level 8
Creating AMGLevel 
[0] Building level 8
Reconstruction on level 8
[1] Building level 9
[3] Building level 7
[2] Building level 7
[1] Building level 10
Creating AMGLevel 
[0] Building level 9
Reconstruction on level 9
[1] Building level 11
[1] Building level 12
[1] Building level 13
[1] Building level 14
Creating AMGLevel 
[0] Building level 10
Reconstruction on level 10
Creating AMGLevel 
[0] Building level 11
Reconstruction on level 11
Creating AMGLevel 
[0] Building level 12
Reconstruction on level 12
[3] Building level 8
Creating AMGLevel 
[0] Building level 13
Reconstruction on level 13
[2] Building level 8
Creating AMGLevel 
[0] Building level 14
Reconstruction on level 14
Creating AMGLevel 
14 Level construction complete
[3] Building level 9
[2] Building level 9
[3] Building level 10
[2] Building level 10
[3] Building level 11
[2] Building level 11
[3] Building level 12
[2] Building level 12
[3] Building level 13
[2] Building level 13
[3] Building level 14
[2] Building level 14
initial dot_x = 114382
Iter #1 residual = 0.000818134
Iter #2 residual = 0.000408183
Iter #3 residual = 0.000224322
GPU: 3 iters: 1.04771 s: 1.87391 GB/s
GPUAMG:  Solving for pd, Initial residual = 0.00335939, Final residual = 0.000129276, No Iterations 3
[3] Building level 0
[0] Building level 0
[1] Building level 0
[2] Building level 0
[3] Building level 1
[2] Building level 1
[0] Building level 1
[1] Building level 1
[0] Building level 2
[3] Building level 2
[2] Building level 2
[1] Building level 2
[3] Building level 3
[0] Building level 3
[2] Building level 3
[1] Building level 3
[0] Building level 4
[1] Building level 4
[3] Building level 4
[2] Building level 4
[0] Building level 5
[1] Building level 5
[3] Building level 5
[2] Building level 5
[0] Building level 6
[1] Building level 6
[3] Building level 6
[0] Building level 7
[1] Building level 7
[0] Building level 8
[2] Building level 6
[1] Building level 8
[0] Building level 9
[3] Building level 7
[0] Building level 10
[1] Building level 9
[0] Building level 11
[0] Building level 12
[0] Building level 13
[0] Building level 14
14 Level construction complete
[1] Building level 10
[1] Building level 11
[1] Building level 12
[1] Building level 13
[1] Building level 14
[3] Building level 8
[3] Building level 9
[2] Building level 7
[3] Building level 10
[3] Building level 11
[3] Building level 12
[3] Building level 13
[3] Building level 14
[2] Building level 8
[2] Building level 9
[2] Building level 10
[2] Building level 11
[2] Building level 12
[2] Building level 13
[2] Building level 14
initial dot_x = 117118
Iter #1 residual = 0.000556689
Iter #2 residual = 0.000271042
Iter #3 residual = 0.000130986
GPU: 3 iters: 1.04885 s: 1.87188 GB/s
GPUAMG:  Solving for pd, Initial residual = 0.00211789, Final residual = 7.0419e-05, No Iterations 3
[1] Building level 0
[3] Building level 0
[2] Building level 0
[0] Building level 0
[3] Building level 1
[1] Building level 1
[2] Building level 1
[0] Building level 1
[0] Building level 2
[3] Building level 2
[2] Building level 2
[1] Building level 2
[3] Building level 3
[0] Building level 3
[2] Building level 3
[1] Building level 3
[0] Building level 4
[1] Building level 4
[3] Building level 4
[2] Building level 4
[0] Building level 5
[1] Building level 5
[3] Building level 5
[2] Building level 5
[0] Building level 6
[1] Building level 6
[3] Building level 6
[0] Building level 7
[1] Building level 7
[0] Building level 8
[2] Building level 6
[1] Building level 8
[0] Building level 9
[3] Building level 7
[0] Building level 10
[0] Building level 11
[1] Building level 9
[0] Building level 12
[0] Building level 13
[0] Building level 14
14 Level construction complete
[1] Building level 10
[1] Building level 11
[1] Building level 12
[1] Building level 13
[1] Building level 14
[3] Building level 8
[3] Building level 9
[2] Building level 7
[3] Building level 10
[3] Building level 11
[3] Building level 12
[3] Building level 13
[3] Building level 14
[2] Building level 8
[2] Building level 9
[2] Building level 10
[2] Building level 11
[2] Building level 12
[2] Building level 13
[2] Building level 14
initial dot_x = 114752
Iter #1 residual = 0.000850322
Iter #2 residual = 0.000528584
Iter #3 residual = 0.000287571
Iter #4 residual = 0.000171805
Iter #5 residual = 9.77455e-05
Iter #6 residual = 6.23113e-05
Iter #7 residual = 4.34873e-05
Iter #8 residual = 3.52216e-05
Iter #9 residual = 2.50435e-05
Iter #10 residual = 1.97654e-05
Iter #11 residual = 1.57164e-05
Iter #12 residual = 1.22936e-05
Iter #13 residual = 9.34465e-06
Iter #14 residual = 7.20029e-06
Iter #15 residual = 5.73658e-06
Iter #16 residual = 4.39848e-06
Iter #17 residual = 3.69649e-06
Iter #18 residual = 2.64476e-06
Iter #19 residual = 2.06719e-06
Iter #20 residual = 1.53089e-06
Iter #21 residual = 1.24197e-06
Iter #22 residual = 1.02056e-06
Iter #23 residual = 7.80809e-07
Iter #24 residual = 5.39175e-07
Iter #25 residual = 4.48106e-07
Iter #26 residual = 3.18782e-07
Iter #27 residual = 2.06143e-07
Iter #28 residual = 1.3862e-07
GPU: 28 iters: 7.57998 s: 2.41745 GB/s
GPUAMG:  Solving for pd, Initial residual = 0.00192874, Final residual = 8.92054e-08, No Iterations 28
time step continuity errors : sum local = 4.18709e-12, global = 2.87992e-24, cumulative = 1.96285e-24
ExecutionTime = 153.54 s  ClockTime = 166 s

Courant Number mean: 7.67658e-06 max: 0.00313308 velocity magnitude: 0.0489543
Time = 0.003

MULES: Solving for alpha1
Liquid phase volume fraction = 0.00275421  Min(alpha1) = -2.14807e-30  Max(alpha1) = 1
MULES: Solving for alpha1
Liquid phase volume fraction = 0.00275421  Min(alpha1) = -3.16885e-30  Max(alpha1) = 1
[3] Building level 0
[2] Building level 0
[1] Building level 0
[0] Building level 0
[3] Building level 1
[2] Building level 1
[1] Building level 1
[0] Building level 1
[0] Building level 2
Reconstruction on level 2
[2] Building level 2
[1] Building level 2
Creating AMGLevel 
[0] Building level 3
Reconstruction on level 3
[1] Building level 3
[2] Building level 3
[3] Building level 2
[1] Building level 4
Creating AMGLevel 
[0] Building level 4
Reconstruction on level 4
[2] Building level 4
[1] Building level 5
Creating AMGLevel 
[0] Building level 5
Reconstruction on level 5
[2] Building level 5
[1] Building level 6
[3] Building level 3
Creating AMGLevel 
[0] Building level 6
Reconstruction on level 6
[2] Building level 6
[1] Building level 7
Creating AMGLevel 
[0] Building level 7
Reconstruction on level 7
[1] Building level 8
[1] Building level 9
[2] Building level 7
Creating AMGLevel 
[0] Building level 8
Reconstruction on level 8
[1] Building level 10
[1] Building level 11
Creating AMGLevel 
[1] Building level 12
[0] Building level 9
Reconstruction on level 9
[1] Building level 13
[1] Building level 14
Creating AMGLevel 
[0] Building level 10
Reconstruction on level 10
[2] Building level 8
Creating AMGLevel 
[0] Building level 11
Reconstruction on level 11
Creating AMGLevel 
[0] Building level 12
Reconstruction on level 12
Creating AMGLevel 
[0] Building level 13
Reconstruction on level 13
Creating AMGLevel 
[0] Building level 14
Reconstruction on level 14
Creating AMGLevel 
14 Level construction complete
[2] Building level 9
[2] Building level 10
[2] Building level 11
[2] Building level 12
[2] Building level 13
[2] Building level 14
[3] Building level 4
[3] Building level 5
[3] Building level 6
[3] Building level 7
[3] Building level 8
[3] Building level 9
[3] Building level 10
[3] Building level 11
[3] Building level 12
[3] Building level 13
[3] Building level 14
initial dot_x = 113214
Iter #1 residual = 0.00211963
Iter #2 residual = 0.00122849
Iter #3 residual = 0.00068911
Iter #4 residual = 0.000425157
Iter #5 residual = 0.000251042
GPU: 5 iters: 1.61759 s: 2.02288 GB/s
GPUAMG:  Solving for pd, Initial residual = 0.00424287, Final residual = 0.000159873, No Iterations 5
[3] Building level 0
[0] Building level 0
[2] Building level 0
[1] Building level 0
[3] Building level 1
[2] Building level 1
[1] Building level 1
[0] Building level 1
[3] Building level 2
[0] Building level 2
[1] Building level 2
[2] Building level 2
[3] Building level 3
[0] Building level 3
[2] Building level 3
[1] Building level 3
[3] Building level 4
[1] Building level 4
[0] Building level 4
[2] Building level 4
[1] Building level 5
[0] Building level 5
[3] Building level 5
[2] Building level 5
[0] Building level 6
[1] Building level 6
[3] Building level 6
[0] Building level 7
[1] Building level 7
[2] Building level 6
[3] Building level 7
[0] Building level 8
[1] Building level 8
[1] Building level 9
[0] Building level 9
[3] Building level 8
[0] Building level 10
[1] Building level 10
[0] Building level 11
[1] Building level 11
[1] Building level 12
[0] Building level 12
[0] Building level 13
[1] Building level 13
[0] Building level 14
14 Level construction complete
[1] Building level 14
[3] Building level 9
[3] Building level 10
[3] Building level 11
[3] Building level 12
[2] Building level 7
[3] Building level 13
[3] Building level 14
[2] Building level 8
[2] Building level 9
[2] Building level 10
[2] Building level 11
[2] Building level 12
[2] Building level 13
[2] Building level 14
initial dot_x = 118656
Iter #1 residual = 0.00133311
Iter #2 residual = 0.000697863
Iter #3 residual = 0.000385953
Iter #4 residual = 0.000227707
GPU: 4 iters: 1.34348 s: 1.94848 GB/s
GPUAMG:  Solving for pd, Initial residual = 0.00304744, Final residual = 0.000136065, No Iterations 4
[2] Building level 0
[1] Building level 0
[3] Building level 0
[0] Building level 0
[3] Building level 1
[2] Building level 1
[1] Building level 1
[0] Building level 1
[3] Building level 2
[0] Building level 2
[1] Building level 2
[2] Building level 2
[3] Building level 3
[0] Building level 3
[2] Building level 3
[1] Building level 3
[3] Building level 4
[1] Building level 4
[0] Building level 4
[2] Building level 4
[1] Building level 5
[0] Building level 5
[3] Building level 5
[2] Building level 5
[0] Building level 6
[1] Building level 6
[3] Building level 6
[0] Building level 7
[1] Building level 7
[3] Building level 7
[2] Building level 6
[0] Building level 8
[1] Building level 8
[0] Building level 9
[1] Building level 9
[3] Building level 8
[0] Building level 10
[1] Building level 10
[0] Building level 11
[1] Building level 11
[0] Building level 12
[1] Building level 12
[0] Building level 13
[0] Building level 14
14 Level construction complete
[1] Building level 13
[1] Building level 14
[3] Building level 9
[3] Building level 10
[3] Building level 11
[3] Building level 12
[3] Building level 13
[2] Building level 7
[3] Building level 14
[2] Building level 8
[2] Building level 9
[2] Building level 10
[2] Building level 11
[2] Building level 12
[2] Building level 13
[2] Building level 14
initial dot_x = 113522
Iter #1 residual = 0.000458905
Iter #2 residual = 0.000172164
Iter #3 residual = 7.59598e-05
Iter #4 residual = 3.85877e-05
Iter #5 residual = 2.08618e-05
Iter #6 residual = 1.41163e-05
Iter #7 residual = 8.94479e-06
Iter #8 residual = 5.41726e-06
Iter #9 residual = 3.54613e-06
Iter #10 residual = 2.94264e-06
Iter #11 residual = 2.14669e-06
Iter #12 residual = 2.33739e-06
Iter #13 residual = 1.35873e-06
Iter #14 residual = 1.17637e-06
Iter #15 residual = 7.43058e-07
Iter #16 residual = 1.00584e-06
Iter #17 residual = 5.24181e-07
Iter #18 residual = 7.121e-07
Iter #19 residual = 3.20027e-07
Iter #20 residual = 3.10486e-07
Iter #21 residual = 3.13573e-07
Iter #22 residual = 3.45693e-07
Iter #23 residual = 1.80997e-07
GPU: 23 iters: 6.47044 s: 2.32628 GB/s
GPUAMG:  Solving for pd, Initial residual = 0.00263267, Final residual = 9.61895e-08, No Iterations 23
time step continuity errors : sum local = 5.15514e-12, global = -1.57385e-24, cumulative = 3.89005e-25
ExecutionTime = 213.3 s  ClockTime = 227 s

Courant Number mean: 1.35761e-05 max: 0.00482757 velocity magnitude: 0.0754308
Time = 0.004

MULES: Solving for alpha1
Liquid phase volume fraction = 0.00275421  Min(alpha1) = -3.81276e-31  Max(alpha1) = 1
MULES: Solving for alpha1
Liquid phase volume fraction = 0.00275421  Min(alpha1) = -4.76638e-31  Max(alpha1) = 1
[2] Building level 0
[3] Building level 0
[1] Building level 0
[0] Building level 0
[3] Building level 1
[2] Building level 1
[1] Building level 1
[0] Building level 1
Reconstruction on level 1
[1] Building level 2
[1] Building level 3
Creating AMGLevel 
[2] Building level 2
[0] Building level 2
Reconstruction on level 2
[3] Building level 2
[1] Building level 4
[1] Building level 5
Creating AMGLevel 
[1] Building level 6
[0] Building level 3
Reconstruction on level 3
[3] Building level 3
[2] Building level 3
[1] Building level 7
[1] Building level 8
[1] Building level 9
[1] Building level 10
[1] Building level 11
[1] Building level 12
[1] Building level 13
[1] Building level 14
Creating AMGLevel 
[0] Building level 4
Reconstruction on level 4
[3] Building level 4
[2] Building level 4
Creating AMGLevel 
[0] Building level 5
Reconstruction on level 5
[3] Building level 5
[2] Building level 5
Creating AMGLevel 
[0] Building level 6
Reconstruction on level 6
[3] Building level 6
[2] Building level 6
Creating AMGLevel 
[0] Building level 7
Reconstruction on level 7
[3] Building level 7
[2] Building level 7
Creating AMGLevel 
[0] Building level 8
Reconstruction on level 8
Creating AMGLevel 
[0] Building level 9
Reconstruction on level 9
[3] Building level 8
[2] Building level 8
Creating AMGLevel 
[0] Building level 10
Reconstruction on level 10
Creating AMGLevel 
[0] Building level 11
Reconstruction on level 11
Creating AMGLevel 
[0] Building level 12
Reconstruction on level 12
[3] Building level 9
[2] Building level 9
Creating AMGLevel 
[0] Building level 13
Reconstruction on level 13
Creating AMGLevel 
[0] Building level 14
Reconstruction on level 14
Creating AMGLevel 
14 Level construction complete
[3] Building level 10
[2] Building level 10
[2] Building level 11
[3] Building level 11
[2] Building level 12
[3] Building level 12
[2] Building level 13
[3] Building level 13
[2] Building level 14
[3] Building level 14
initial dot_x = 114104
Iter #1 residual = 0.00141078
Iter #2 residual = 0.000780988
Iter #3 residual = 0.000451931
Iter #4 residual = 0.000273716
GPU: 4 iters: 1.18474 s: 2.20956 GB/s
GPUAMG:  Solving for pd, Initial residual = 0.00342642, Final residual = 0.000168204, No Iterations 4
[3] Building level 0
[2] Building level 0
[1] Building level 0
[0] Building level 0
[3] Building level 1
[2] Building level 1
[0] Building level 1
[1] Building level 1
[0] Building level 2
[2] Building level 2
[3] Building level 2
[1] Building level 2
[0] Building level 3
[2] Building level 3
[3] Building level 3
[1] Building level 3
[0] Building level 4
[1] Building level 4
[2] Building level 4
[3] Building level 4
[0] Building level 5
[1] Building level 5
[2] Building level 5
[3] Building level 5
[0] Building level 6
[1] Building level 6
[2] Building level 6
[0] Building level 7
[3] Building level 6
[0] Building level 8
[1] Building level 7
[2] Building level 7
[0] Building level 9
[0] Building level 10
[0] Building level 11
[0] Building level 12
[0] Building level 13
[0] Building level 14
14 Level construction complete
[3] Building level 7
[1] Building level 8
[2] Building level 8
[1] Building level 9
[2] Building level 9
[1] Building level 10
[1] Building level 11
[3] Building level 8
[1] Building level 12
[1] Building level 13
[2] Building level 10
[1] Building level 14
[2] Building level 11
[2] Building level 12
[2] Building level 13
[2] Building level 14
[3] Building level 9
[3] Building level 10
[3] Building level 11
[3] Building level 12
[3] Building level 13
[3] Building level 14
initial dot_x = 118408
Iter #1 residual = 0.00207072
Iter #2 residual = 0.00114786
Iter #3 residual = 0.000648477
Iter #4 residual = 0.000396121
Iter #5 residual = 0.000237734
GPU: 5 iters: 1.42322 s: 2.29914 GB/s
GPUAMG:  Solving for pd, Initial residual = 0.00325466, Final residual = 0.000148172, No Iterations 5
[2] Building level 0
[1] Building level 0
[0] Building level 0
[3] Building level 0
[3] Building level 1
[1] Building level 1
[2] Building level 1
[0] Building level 1
[2] Building level 2
[0] Building level 2
[3] Building level 2
[1] Building level 2
[0] Building level 3
[2] Building level 3
[3] Building level 3
[1] Building level 3
[0] Building level 4
[1] Building level 4
[2] Building level 4
[3] Building level 4
[0] Building level 5
[1] Building level 5
[2] Building level 5
[3] Building level 5
[0] Building level 6
[1] Building level 6
[2] Building level 6
[0] Building level 7
[3] Building level 6
[0] Building level 8
[1] Building level 7
[2] Building level 7
[0] Building level 9
[0] Building level 10
[0] Building level 11
[0] Building level 12
[0] Building level 13
[0] Building level 14
14 Level construction complete
[1] Building level 8
[3] Building level 7
[2] Building level 8
[1] Building level 9
[1] Building level 10
[2] Building level 9
[1] Building level 11
[1] Building level 12
[1] Building level 13
[3] Building level 8
[1] Building level 14
[2] Building level 10
[2] Building level 11
[2] Building level 12
[2] Building level 13
[2] Building level 14
[3] Building level 9
[3] Building level 10
[3] Building level 11
[3] Building level 12
[3] Building level 13
[3] Building level 14
initial dot_x = 115681
Iter #1 residual = 0.000856317
Iter #2 residual = 0.000453816
Iter #3 residual = 0.00023228
Iter #4 residual = 0.000143174
Iter #5 residual = 8.03438e-05
Iter #6 residual = 4.99171e-05
Iter #7 residual = 2.99568e-05
Iter #8 residual = 1.89369e-05
Iter #9 residual = 1.16322e-05
Iter #10 residual = 7.53913e-06
Iter #11 residual = 4.7304e-06
Iter #12 residual = 3.1086e-06
Iter #13 residual = 1.91993e-06
Iter #14 residual = 1.41641e-06
Iter #15 residual = 8.39367e-07
Iter #16 residual = 5.92286e-07
Iter #17 residual = 3.6908e-07
Iter #18 residual = 2.72728e-07
Iter #19 residual = 2.12934e-07
Iter #20 residual = 1.28132e-07
Iter #21 residual = 1.16503e-07
GPU: 21 iters: 5.20565 s: 2.64005 GB/s
GPUAMG:  Solving for pd, Initial residual = 0.00244516, Final residual = 5.87306e-08, No Iterations 21
time step continuity errors : sum local = 2.7958e-12, global = -2.70273e-24, cumulative = -2.31372e-24
ExecutionTime = 271.19 s  ClockTime = 286 s

Courant Number mean: 1.92533e-05 max: 0.00598208 velocity magnitude: 0.0934699
Time = 0.005

MULES: Solving for alpha1
Liquid phase volume fraction = 0.00275421  Min(alpha1) = -5.47805e-30  Max(alpha1) = 1
MULES: Solving for alpha1
Liquid phase volume fraction = 0.00275421  Min(alpha1) = -2.43453e-32  Max(alpha1) = 1
[2] Building level 0
[3] Building level 0
[1] Building level 0
[0] Building level 0
[3] Building level 1
[2] Building level 1
[0] Building level 1
Reconstruction on level 1
[1] Building level 1
[2] Building level 2
[1] Building level 2
[1] Building level 3
[2] Building level 3
Creating AMGLevel 
[0] Building level 2
Reconstruction on level 2
[3] Building level 2
[1] Building level 4
[2] Building level 4
[1] Building level 5
[2] Building level 5
Creating AMGLevel 
[0] Building level 3
Reconstruction on level 3
[3] Building level 3
[1] Building level 6
[2] Building level 6
[1] Building level 7
[2] Building level 7
[1] Building level 8
[1] Building level 9
[2] Building level 8
[1] Building level 10
[1] Building level 11
[1] Building level 12
[1] Building level 13
[2] Building level 9
[1] Building level 14
[2] Building level 10
[2] Building level 11
[2] Building level 12
[2] Building level 13
[2] Building level 14
Creating AMGLevel 
[0] Building level 4
Reconstruction on level 4
[3] Building level 4
Creating AMGLevel 
[0] Building level 5
Reconstruction on level 5
[3] Building level 5
Creating AMGLevel 
[0] Building level 6
Reconstruction on level 6
[3] Building level 6
Creating AMGLevel 
[0] Building level 7
Reconstruction on level 7
[3] Building level 7
Creating AMGLevel 
[0] Building level 8
Reconstruction on level 8
Creating AMGLevel 
[0] Building level 9
Reconstruction on level 9
[3] Building level 8
Creating AMGLevel 
[0] Building level 10
Reconstruction on level 10
Creating AMGLevel 
[0] Building level 11
Reconstruction on level 11
[3] Building level 9
Creating AMGLevel 
[0] Building level 12
Reconstruction on level 12
Creating AMGLevel 
[0] Building level 13
Reconstruction on level 13
Creating AMGLevel 
[0] Building level 14
Reconstruction on level 14
Creating AMGLevel 
14 Level construction complete
[3] Building level 10
[3] Building level 11
[3] Building level 12
[3] Building level 13
[3] Building level 14
initial dot_x = 114254
Iter #1 residual = 0.00123059
Iter #2 residual = 0.00067063
Iter #3 residual = 0.000386297
Iter #4 residual = 0.000248751
Iter #5 residual = 0.000191701
Iter #6 residual = 0.000151095
Iter #7 residual = 0.000121615
GPU: 7 iters: 1.94783 s: 2.35188 GB/s
GPUAMG:  Solving for pd, Initial residual = 0.002168, Final residual = 9.4945e-05, No Iterations 7
[3] Building level 0
[1] Building level 0
[2] Building level 0
[0] Building level 0
[3] Building level 1
[2] Building level 1
[1] Building level 1
[0] Building level 1
[2] Building level 2
[0] Building level 2
[3] Building level 2
[1] Building level 2
[0] Building level 3
[3] Building level 3
[2] Building level 3
[1] Building level 3
[0] Building level 4
[3] Building level 4
[1] Building level 4
[2] Building level 4
[0] Building level 5
[1] Building level 5
[3] Building level 5
[2] Building level 5
[0] Building level 6
[1] Building level 6
[0] Building level 7
[3] Building level 6
[2] Building level 6
[0] Building level 8
[0] Building level 9
[1] Building level 7
[0] Building level 10
[0] Building level 11
[3] Building level 7
[0] Building level 12
[0] Building level 13
[0] Building level 14
14 Level construction complete
[1] Building level 8
[2] Building level 7
[3] Building level 8
[1] Building level 9
[1] Building level 10
[1] Building level 11
[3] Building level 9
[1] Building level 12
[1] Building level 13
[2] Building level 8
[1] Building level 14
[3] Building level 10
[3] Building level 11
[3] Building level 12
[3] Building level 13
[3] Building level 14
[2] Building level 9
[2] Building level 10
[2] Building level 11
[2] Building level 12
[2] Building level 13
[2] Building level 14
initial dot_x = 121554
Iter #1 residual = 0.00100372
Iter #2 residual = 0.000565519
Iter #3 residual = 0.0003241
Iter #4 residual = 0.000231856
Iter #5 residual = 0.000169898
Iter #6 residual = 0.000136164
Iter #7 residual = 0.000103554
GPU: 7 iters: 1.93672 s: 2.36537 GB/s
GPUAMG:  Solving for pd, Initial residual = 0.00180352, Final residual = 8.25502e-05, No Iterations 7
[3] Building level 0
[2] Building level 0
[1] Building level 0
[0] Building level 0
[3] Building level 1
[0] Building level 1
[2] Building level 1
[1] Building level 1
[3] Building level 2
[0] Building level 2
[2] Building level 2
[1] Building level 2
[3] Building level 3
[0] Building level 3
[2] Building level 3
[1] Building level 3
[0] Building level 4
[3] Building level 4
[1] Building level 4
[2] Building level 4
[0] Building level 5
[3] Building level 5
[1] Building level 5
[2] Building level 5
[0] Building level 6
[3] Building level 6
[1] Building level 6
[0] Building level 7
[2] Building level 6
[0] Building level 8
[3] Building level 7
[0] Building level 9
[1] Building level 7
[0] Building level 10
[0] Building level 11
[0] Building level 12
[0] Building level 13
[0] Building level 14
14 Level construction complete
[3] Building level 8
[1] Building level 8
[3] Building level 9
[2] Building level 7
[3] Building level 10
[1] Building level 9
[3] Building level 11
[3] Building level 12
[3] Building level 13
[3] Building level 14
[1] Building level 10
[1] Building level 11
[1] Building level 12
[1] Building level 13
[1] Building level 14
[2] Building level 8
[2] Building level 9
[2] Building level 10
[2] Building level 11
[2] Building level 12
[2] Building level 13
[2] Building level 14
initial dot_x = 114293
Iter #1 residual = 0.000559347
Iter #2 residual = 0.00033309
Iter #3 residual = 0.000193259
Iter #4 residual = 0.000148001
Iter #5 residual = 0.00011724
Iter #6 residual = 9.91576e-05
Iter #7 residual = 8.16513e-05
Iter #8 residual = 7.17334e-05
Iter #9 residual = 5.82332e-05
Iter #10 residual = 4.87592e-05
Iter #11 residual = 3.91401e-05
Iter #12 residual = 3.30649e-05
Iter #13 residual = 2.70266e-05
Iter #14 residual = 2.38213e-05
Iter #15 residual = 2.02871e-05
Iter #16 residual = 1.79261e-05
Iter #17 residual = 1.47464e-05
Iter #18 residual = 1.25018e-05
Iter #19 residual = 9.34012e-06
Iter #20 residual = 6.97225e-06
Iter #21 residual = 5.61709e-06
Iter #22 residual = 4.00902e-06
Iter #23 residual = 3.12743e-06
Iter #24 residual = 2.72376e-06
Iter #25 residual = 2.27826e-06
Iter #26 residual = 2.42353e-06
Iter #27 residual = 1.04783e-06
Iter #28 residual = 6.7198e-07
Iter #29 residual = 4.33157e-07
Iter #30 residual = 3.91307e-07
Iter #31 residual = 2.84144e-07
Iter #32 residual = 2.60119e-07
Iter #33 residual = 1.98901e-07
Iter #34 residual = 1.77772e-07
Iter #35 residual = 1.37793e-07
GPU: 35 iters: 8.73233 s: 2.62305 GB/s
GPUAMG:  Solving for pd, Initial residual = 0.00146749, Final residual = 9.77402e-08, No Iterations 35
time step continuity errors : sum local = 4.71557e-12, global = -4.3388e-24, cumulative = -6.65252e-24
ExecutionTime = 333.9 s  ClockTime = 350 s

Courant Number mean: 2.43938e-05 max: 0.00684033 velocity magnitude: 0.10688
Time = 0.006

MULES: Solving for alpha1
Liquid phase volume fraction = 0.00275421  Min(alpha1) = -7.09895e-30  Max(alpha1) = 1
MULES: Solving for alpha1
Liquid phase volume fraction = 0.00275421  Min(alpha1) = -1.49395e-29  Max(alpha1) = 1
[2] Building level 0
[1] Building level 0
[3] Building level 0
[0] Building level 0
[3] Building level 1
[1] Building level 1
[2] Building level 1
[0] Building level 1
[2] Building level 2
[0] Building level 2
Reconstruction on level 2
[1] Building level 2
Creating AMGLevel 
[0] Building level 3
Reconstruction on level 3
[1] Building level 3
[2] Building level 3
[3] Building level 2
Creating AMGLevel 
[0] Building level 4
Reconstruction on level 4
[1] Building level 4
[2] Building level 4
Creating AMGLevel 
[0] Building level 5
Reconstruction on level 5
[1] Building level 5
[2] Building level 5
[3] Building level 3
Creating AMGLevel 
[0] Building level 6
Reconstruction on level 6
[1] Building level 6
[2] Building level 6
Creating AMGLevel 
[0] Building level 7
Reconstruction on level 7
[1] Building level 7
[2] Building level 7
Creating AMGLevel 
[0] Building level 8
Reconstruction on level 8
[1] Building level 8
Creating AMGLevel 
[0] Building level 9
Reconstruction on level 9
[1] Building level 9
[2] Building level 8
Creating AMGLevel 
[0] Building level 10
Reconstruction on level 10
[1] Building level 10
Creating AMGLevel 
[0] Building level 11
Reconstruction on level 11
[1] Building level 11
Creating AMGLevel 
[0] Building level 12
Reconstruction on level 12
[1] Building level 12
[2] Building level 9
Creating AMGLevel 
[0] Building level 13
Reconstruction on level 13
[1] Building level 13
Creating AMGLevel 
[0] Building level 14
Reconstruction on level 14
[1] Building level 14
Creating AMGLevel 
14 Level construction complete
[2] Building level 10
[2] Building level 11
[2] Building level 12
[2] Building level 13
[2] Building level 14
[3] Building level 4
[3] Building level 5
[3] Building level 6
[3] Building level 7
[3] Building level 8
[3] Building level 9
[3] Building level 10
[3] Building level 11
[3] Building level 12
[3] Building level 13
[3] Building level 14
initial dot_x = 113833
Iter #1 residual = 0.00151115
Iter #2 residual = 0.000798865
Iter #3 residual = 0.000453025
Iter #4 residual = 0.000277225
Iter #5 residual = 0.000155045
GPU: 5 iters: 1.48258 s: 2.20709 GB/s
GPUAMG:  Solving for pd, Initial residual = 0.00228402, Final residual = 0.000105517, No Iterations 5
[0] Building level 0
[1] Building level 0
[3] Building level 0
[2] Building level 0
[3] Building level 1
[2] Building level 1
[0] Building level 1
[1] Building level 1
[0] Building level 2
[2] Building level 2
[3] Building level 2
[1] Building level 2
[0] Building level 3
[2] Building level 3
[3] Building level 3
[1] Building level 3
[0] Building level 4
[2] Building level 4
[3] Building level 4
[1] Building level 4
[0] Building level 5
[2] Building level 5
[3] Building level 5
[1] Building level 5
[0] Building level 6
[2] Building level 6
[3] Building level 6
[1] Building level 6
[0] Building level 7
[0] Building level 8
[2] Building level 7
[1] Building level 7
[3] Building level 7
[0] Building level 9
[0] Building level 10
[0] Building level 11
[0] Building level 12
[2] Building level 8
[0] Building level 13
[0] Building level 14
14 Level construction complete
[1] Building level 8
[3] Building level 8
[2] Building level 9
[1] Building level 9
[2] Building level 10
[3] Building level 9
[2] Building level 11
[2] Building level 12
[1] Building level 10
[2] Building level 13
[2] Building level 14
[3] Building level 10
[1] Building level 11
[3] Building level 11
[1] Building level 12
[1] Building level 13
[3] Building level 12
[1] Building level 14
[3] Building level 13
[3] Building level 14
initial dot_x = 117815
Iter #1 residual = 0.00116683
Iter #2 residual = 0.000597739
Iter #3 residual = 0.000324707
Iter #4 residual = 0.000205527
Iter #5 residual = 0.000121339
Iter #6 residual = 9.60005e-05
Iter #7 residual = 7.5136e-05
Iter #8 residual = 6.21329e-05
GPU: 8 iters: 2.21978 s: 2.35857 GB/s
GPUAMG:  Solving for pd, Initial residual = 0.00119277, Final residual = 5.02836e-05, No Iterations 8
[0] Building level 0
[3] Building level 0
[1] Building level 0
[2] Building level 0
[3] Building level 1
[2] Building level 1
[1] Building level 1
[0] Building level 1
[2] Building level 2
[0] Building level 2
[3] Building level 2
[1] Building level 2
[0] Building level 3
[2] Building level 3
[3] Building level 3
[1] Building level 3
[0] Building level 4
[2] Building level 4
[1] Building level 4
[3] Building level 4
[0] Building level 5
[1] Building level 5
[2] Building level 5
[3] Building level 5
[0] Building level 6
[1] Building level 6
[2] Building level 6
[3] Building level 6
[0] Building level 7
[1] Building level 7
[2] Building level 7
[0] Building level 8
[1] Building level 8
[0] Building level 9
[3] Building level 7
[0] Building level 10
[2] Building level 8
[0] Building level 11
[1] Building level 9
[0] Building level 12
[0] Building level 13
[0] Building level 14
14 Level construction complete
[1] Building level 10
[2] Building level 9
[1] Building level 11
[1] Building level 12
[1] Building level 13
[1] Building level 14
[3] Building level 8
[2] Building level 10
[2] Building level 11
[2] Building level 12
[2] Building level 13
[2] Building level 14
[3] Building level 9
[3] Building level 10
[3] Building level 11
[3] Building level 12
[3] Building level 13
[3] Building level 14
initial dot_x = 113986
Iter #1 residual = 0.000262843
Iter #2 residual = 0.000155139
Iter #3 residual = 9.10422e-05
Iter #4 residual = 5.68027e-05
Iter #5 residual = 3.70306e-05
Iter #6 residual = 2.86922e-05
Iter #7 residual = 2.39535e-05
Iter #8 residual = 1.94704e-05
Iter #9 residual = 1.41186e-05
Iter #10 residual = 9.44308e-06
Iter #11 residual = 6.687e-06
Iter #12 residual = 5.18112e-06
Iter #13 residual = 3.67668e-06
Iter #14 residual = 2.54687e-06
Iter #15 residual = 1.92169e-06
Iter #16 residual = 1.23776e-06
Iter #17 residual = 6.95235e-07
Iter #18 residual = 5.15976e-07
Iter #19 residual = 3.64002e-07
Iter #20 residual = 2.36216e-07
Iter #21 residual = 4.13497e-07
Iter #22 residual = 3.65692e-07
Iter #23 residual = 2.75965e-07
Iter #24 residual = 1.05106e-07
GPU: 24 iters: 6.14885 s: 2.55438 GB/s
GPUAMG:  Solving for pd, Initial residual = 0.000727564, Final residual = 5.57891e-08, No Iterations 24
time step continuity errors : sum local = 2.64418e-12, global = -6.35964e-25, cumulative = -7.28849e-24
ExecutionTime = 394.22 s  ClockTime = 411 s

Courant Number mean: 2.95099e-05 max: 0.00764228 velocity magnitude: 0.119411
Time = 0.007

MULES: Solving for alpha1
Liquid phase volume fraction = 0.00275421  Min(alpha1) = -5.47123e-30  Max(alpha1) = 1
MULES: Solving for alpha1
Liquid phase volume fraction = 0.00275421  Min(alpha1) = -1.32083e-29  Max(alpha1) = 1
[2] Building level 0
[3] Building level 0
[1] Building level 0
[0] Building level 0
[3] Building level 1
[2] Building level 1
[0] Building level 1
Reconstruction on level 1
[1] Building level 1
[2] Building level 2
[1] Building level 2
[1] Building level 3
[1] Building level 4
[2] Building level 3
[1] Building level 5
Creating AMGLevel 
[0] Building level 2
Reconstruction on level 2
[3] Building level 2
[1] Building level 6
[2] Building level 4
[1] Building level 7
[1] Building level 8
[1] Building level 9
[1] Building level 10
[1] Building level 11
[1] Building level 12
[1] Building level 13
[1] Building level 14
[2] Building level 5
Creating AMGLevel 
[0] Building level 3
Reconstruction on level 3
[3] Building level 3
[2] Building level 6
[2] Building level 7
[2] Building level 8
[2] Building level 9
[2] Building level 10
[2] Building level 11
[2] Building level 12
[2] Building level 13
[2] Building level 14
Creating AMGLevel 
[0] Building level 4
Reconstruction on level 4
[3] Building level 4
Creating AMGLevel 
[0] Building level 5
Reconstruction on level 5
[3] Building level 5
Creating AMGLevel 
[0] Building level 6
Reconstruction on level 6
[3] Building level 6
Creating AMGLevel 
[0] Building level 7
Reconstruction on level 7
[3] Building level 7
Creating AMGLevel 
[0] Building level 8
Reconstruction on level 8
[3] Building level 8
Creating AMGLevel 
[0] Building level 9
Reconstruction on level 9
Creating AMGLevel 
[0] Building level 10
Reconstruction on level 10
Creating AMGLevel 
[0] Building level 11
Reconstruction on level 11
[3] Building level 9
Creating AMGLevel 
[0] Building level 12
Reconstruction on level 12
Creating AMGLevel 
[0] Building level 13
Reconstruction on level 13
Creating AMGLevel 
[0] Building level 14
Reconstruction on level 14
[3] Building level 10
Creating AMGLevel 
14 Level construction complete
[3] Building level 11
[3] Building level 12
[3] Building level 13
[3] Building level 14
initial dot_x = 114031
Iter #1 residual = 0.00142585
Iter #2 residual = 0.000762742
Iter #3 residual = 0.000438471
Iter #4 residual = 0.000264503
Iter #5 residual = 0.000160059
GPU: 5 iters: 1.62186 s: 2.01755 GB/s
GPUAMG:  Solving for pd, Initial residual = 0.0023258, Final residual = 0.000100642, No Iterations 5
[0] Building level 0
[2] Building level 0
[3] Building level 0
[1] Building level 0
[3] Building level 1
[0] Building level 1
[2] Building level 1
[1] Building level 1
[3] Building level 2
[2] Building level 2
[0] Building level 2
[1] Building level 2
[3] Building level 3
[2] Building level 3
[0] Building level 3
[1] Building level 3
[3] Building level 4
[2] Building level 4
[0] Building level 4
[1] Building level 4
[3] Building level 5
[2] Building level 5
[0] Building level 5
[1] Building level 5
[3] Building level 6
[0] Building level 6
[2] Building level 6
[1] Building level 6
[3] Building level 7
[3] Building level 8
[0] Building level 7
[2] Building level 7
[3] Building level 9
[3] Building level 10
[1] Building level 7
[3] Building level 11
[3] Building level 12
[3] Building level 13
[3] Building level 14
[0] Building level 8
[2] Building level 8
[1] Building level 8
[0] Building level 9
[2] Building level 9
[0] Building level 10
[0] Building level 11
[2] Building level 10
[1] Building level 9
[0] Building level 12
[0] Building level 13
[0] Building level 14
14 Level construction complete
[2] Building level 11
[2] Building level 12
[2] Building level 13
[1] Building level 10
[2] Building level 14
[1] Building level 11
[1] Building level 12
[1] Building level 13
[1] Building level 14
initial dot_x = 119699
Iter #1 residual = 0.00120835
Iter #2 residual = 0.000624288
Iter #3 residual = 0.000357141
Iter #4 residual = 0.000200751
Iter #5 residual = 0.000138202
Iter #6 residual = 0.000106008
Iter #7 residual = 6.85016e-05
GPU: 7 iters: 2.17129 s: 2.10983 GB/s
GPUAMG:  Solving for pd, Initial residual = 0.00110366, Final residual = 4.80523e-05, No Iterations 7
[1] Building level 0
[3] Building level 0
[0] Building level 0
[2] Building level 0
[3] Building level 1
[0] Building level 1
[2] Building level 1
[1] Building level 1
[3] Building level 2
[2] Building level 2
[0] Building level 2
[1] Building level 2
[3] Building level 3
[2] Building level 3
[0] Building level 3
[1] Building level 3
[3] Building level 4
[2] Building level 4
[1] Building level 4
[0] Building level 4
[3] Building level 5
[1] Building level 5
[2] Building level 5
[0] Building level 5
[3] Building level 6
[1] Building level 6
[0] Building level 6
[2] Building level 6
[3] Building level 7
[1] Building level 7
[0] Building level 7
[2] Building level 7
[3] Building level 8
[1] Building level 8
[3] Building level 9
[0] Building level 8
[3] Building level 10
[1] Building level 9
[2] Building level 8
[3] Building level 11
[3] Building level 12
[3] Building level 13
[1] Building level 10
[3] Building level 14
[1] Building level 11
[0] Building level 9
[1] Building level 12
[1] Building level 13
[1] Building level 14
[2] Building level 9
[0] Building level 10
[2] Building level 10
[0] Building level 11
[0] Building level 12
[0] Building level 13
[2] Building level 11
[0] Building level 14
14 Level construction complete
[2] Building level 12
[2] Building level 13
[2] Building level 14
initial dot_x = 113853
Iter #1 residual = 0.000185214
Iter #2 residual = 0.000113919
Iter #3 residual = 7.21981e-05
Iter #4 residual = 5.62267e-05
Iter #5 residual = 4.52654e-05
Iter #6 residual = 3.66232e-05
Iter #7 residual = 2.59106e-05
Iter #8 residual = 1.86529e-05
Iter #9 residual = 1.51747e-05
Iter #10 residual = 1.24394e-05
Iter #11 residual = 8.84643e-06
Iter #12 residual = 5.74024e-06
Iter #13 residual = 4.26986e-06
Iter #14 residual = 3.43432e-06
Iter #15 residual = 2.94224e-06
Iter #16 residual = 2.41935e-06
Iter #17 residual = 2.06159e-06
Iter #18 residual = 1.59326e-06
Iter #19 residual = 1.25748e-06
Iter #20 residual = 1.00797e-06
Iter #21 residual = 8.0439e-07
Iter #22 residual = 6.69694e-07
Iter #23 residual = 5.74211e-07
Iter #24 residual = 4.91072e-07
Iter #25 residual = 4.26945e-07
Iter #26 residual = 3.16297e-07
Iter #27 residual = 2.00923e-07
Iter #28 residual = 1.5041e-07
Iter #29 residual = 1.20318e-07
GPU: 29 iters: 8.1373 s: 2.33231 GB/s
GPUAMG:  Solving for pd, Initial residual = 0.000558101, Final residual = 8.38726e-08, No Iterations 29
time step continuity errors : sum local = 3.89616e-12, global = -3.70508e-28, cumulative = -7.28886e-24
ExecutionTime = 457.11 s  ClockTime = 475 s

Courant Number mean: 3.4631e-05 max: 0.0083495 velocity magnitude: 0.130461
Time = 0.008

MULES: Solving for alpha1
Liquid phase volume fraction = 0.00275421  Min(alpha1) = -1.66035e-30  Max(alpha1) = 1
MULES: Solving for alpha1
Liquid phase volume fraction = 0.00275421  Min(alpha1) = -4.82704e-30  Max(alpha1) = 1
[0] Building level 0
[1] Building level 0
[2] Building level 0
[3] Building level 0
[3] Building level 1
[0] Building level 1
[1] Building level 1
[2] Building level 1
[2] Building level 2
[0] Building level 2
Reconstruction on level 2
[1] Building level 2
Creating AMGLevel 
[0] Building level 3
Reconstruction on level 3
[1] Building level 3
[2] Building level 3
[3] Building level 2
Creating AMGLevel 
[0] Building level 4
Reconstruction on level 4
[1] Building level 4
[2] Building level 4
Creating AMGLevel 
[0] Building level 5
Reconstruction on level 5
[1] Building level 5
[2] Building level 5
[3] Building level 3
Creating AMGLevel 
[0] Building level 6
Reconstruction on level 6
[1] Building level 6
[2] Building level 6
Creating AMGLevel 
[0] Building level 7
Reconstruction on level 7
[1] Building level 7
[2] Building level 7
Creating AMGLevel 
[0] Building level 8
Reconstruction on level 8
[1] Building level 8
Creating AMGLevel 
[0] Building level 9
Reconstruction on level 9
[2] Building level 8
[1] Building level 9
Creating AMGLevel 
[0] Building level 10
Reconstruction on level 10
[1] Building level 10
Creating AMGLevel 
[0] Building level 11
Reconstruction on level 11
[1] Building level 11
[2] Building level 9
Creating AMGLevel 
[0] Building level 12
Reconstruction on level 12
[1] Building level 12
Creating AMGLevel 
[0] Building level 13
Reconstruction on level 13
[1] Building level 13
Creating AMGLevel 
[0] Building level 14
Reconstruction on level 14
[1] Building level 14
Creating AMGLevel 
14 Level construction complete
[2] Building level 10
[2] Building level 11
[2] Building level 12
[2] Building level 13
[2] Building level 14
[3] Building level 4
[3] Building level 5
[3] Building level 6
[3] Building level 7
[3] Building level 8
[3] Building level 9
[3] Building level 10
[3] Building level 11
[3] Building level 12
[3] Building level 13
[3] Building level 14
initial dot_x = 114138
Iter #1 residual = 0.00143549
Iter #2 residual = 0.000768442
Iter #3 residual = 0.000438662
Iter #4 residual = 0.000275556
Iter #5 residual = 0.000164863
Iter #6 residual = 0.000120236
GPU: 6 iters: 1.90665 s: 2.05944 GB/s
GPUAMG:  Solving for pd, Initial residual = 0.00236362, Final residual = 9.12676e-05, No Iterations 6
[2] Building level 0
[1] Building level 0
[3] Building level 0
[0] Building level 0
[3] Building level 1
[0] Building level 1
[2] Building level 1
[1] Building level 1
[3] Building level 2
[2] Building level 2
[0] Building level 2
[1] Building level 2
[3] Building level 3
[2] Building level 3
[0] Building level 3
[1] Building level 3
[3] Building level 4
[2] Building level 4
[0] Building level 4
[1] Building level 4
[3] Building level 5
[2] Building level 5
[0] Building level 5
[1] Building level 5
[3] Building level 6
[2] Building level 6
[0] Building level 6
[3] Building level 7
[2] Building level 7
[3] Building level 8
[0] Building level 7
[1] Building level 6
[3] Building level 9
[2] Building level 8
[3] Building level 10
[3] Building level 11
[0] Building level 8
[3] Building level 12
[3] Building level 13
[3] Building level 14
[2] Building level 9
[2] Building level 10
[2] Building level 11
[0] Building level 9
[2] Building level 12
[2] Building level 13
[2] Building level 14
[0] Building level 10
[0] Building level 11
[1] Building level 7
[0] Building level 12
[0] Building level 13
[0] Building level 14
14 Level construction complete
[1] Building level 8
[1] Building level 9
[1] Building level 10
[1] Building level 11
[1] Building level 12
[1] Building level 13
[1] Building level 14
initial dot_x = 118150
Iter #1 residual = 0.0012129
Iter #2 residual = 0.000657379
Iter #3 residual = 0.000359859
Iter #4 residual = 0.000253608
Iter #5 residual = 0.00016127
Iter #6 residual = 0.000109755
Iter #7 residual = 7.13962e-05
Iter #8 residual = 5.49281e-05
GPU: 8 iters: 2.4437 s: 2.14245 GB/s
GPUAMG:  Solving for pd, Initial residual = 0.00106682, Final residual = 3.68346e-05, No Iterations 8
[1] Building level 0
[2] Building level 0
[0] Building level 0
[3] Building level 0
[3] Building level 1
[2] Building level 1
[0] Building level 1
[1] Building level 1
[3] Building level 2
[2] Building level 2
[0] Building level 2
[1] Building level 2
[3] Building level 3
[2] Building level 3
[0] Building level 3
[1] Building level 3
[3] Building level 4
[2] Building level 4
[0] Building level 4
[1] Building level 4
[3] Building level 5
[2] Building level 5
[0] Building level 5
[1] Building level 5
[3] Building level 6
[2] Building level 6
[0] Building level 6
[1] Building level 6
[2] Building level 7
[3] Building level 7
[3] Building level 8
[2] Building level 8
[0] Building level 7
[3] Building level 9
[2] Building level 9
[1] Building level 7
[3] Building level 10
[2] Building level 10
[3] Building level 11
[2] Building level 11
[2] Building level 12
[3] Building level 12
[0] Building level 8
[2] Building level 13
[3] Building level 13
[2] Building level 14
[3] Building level 14
[0] Building level 9
[1] Building level 8
[0] Building level 10
[0] Building level 11
[0] Building level 12
[0] Building level 13
[0] Building level 14
14 Level construction complete
[1] Building level 9
[1] Building level 10
[1] Building level 11
[1] Building level 12
[1] Building level 13
[1] Building level 14
initial dot_x = 113670
Iter #1 residual = 0.000177002
Iter #2 residual = 0.000106874
Iter #3 residual = 6.72382e-05
Iter #4 residual = 4.03367e-05
Iter #5 residual = 2.98343e-05
Iter #6 residual = 1.9922e-05
Iter #7 residual = 1.47584e-05
Iter #8 residual = 1.07432e-05
Iter #9 residual = 8.82822e-06
Iter #10 residual = 6.82243e-06
Iter #11 residual = 5.30389e-06
Iter #12 residual = 4.02827e-06
Iter #13 residual = 3.44278e-06
Iter #14 residual = 2.72811e-06
Iter #15 residual = 2.34101e-06
Iter #16 residual = 2.05582e-06
Iter #17 residual = 1.45883e-06
Iter #18 residual = 1.38855e-06
Iter #19 residual = 8.31006e-07
Iter #20 residual = 9.07165e-07
Iter #21 residual = 3.61702e-07
Iter #22 residual = 2.52908e-07
Iter #23 residual = 1.58256e-07
GPU: 23 iters: 6.52004 s: 2.30858 GB/s
GPUAMG:  Solving for pd, Initial residual = 0.000464849, Final residual = 6.77769e-08, No Iterations 23
time step continuity errors : sum local = 3.24196e-12, global = 2.92638e-24, cumulative = -4.36248e-24
ExecutionTime = 518.58 s  ClockTime = 537 s

Courant Number mean: 3.97659e-05 max: 0.00903212 velocity magnitude: 0.140375
Time = 0.009

MULES: Solving for alpha1
Liquid phase volume fraction = 0.00275421  Min(alpha1) = -4.16597e-30  Max(alpha1) = 1
MULES: Solving for alpha1
Liquid phase volume fraction = 0.00275421  Min(alpha1) = -8.02537e-30  Max(alpha1) = 1
[1] Building level 0
[3] Building level 0
[2] Building level 0
[0] Building level 0
[3] Building level 1
[2] Building level 1
[0] Building level 1
Reconstruction on level 1
[1] Building level 1
[2] Building level 2
[2] Building level 3
Creating AMGLevel 
[3] Building level 2
[0] Building level 2
Reconstruction on level 2
[1] Building level 2
[2] Building level 4
[2] Building level 5
[3] Building level 3
Creating AMGLevel 
[0] Building level 3
Reconstruction on level 3
[1] Building level 3
[2] Building level 6
[2] Building level 7
[2] Building level 8
[2] Building level 9
[2] Building level 10
[2] Building level 11
[2] Building level 12
[2] Building level 13
[2] Building level 14
Creating AMGLevel 
[3] Building level 4
[1] Building level 4
[0] Building level 4
Reconstruction on level 4
Creating AMGLevel 
[1] Building level 5
[0] Building level 5
Reconstruction on level 5
[3] Building level 5
[1] Building level 6
Creating AMGLevel 
[3] Building level 6
[0] Building level 6
Reconstruction on level 6
[1] Building level 7
[3] Building level 7
Creating AMGLevel 
[0] Building level 7
Reconstruction on level 7
[1] Building level 8
Creating AMGLevel 
[0] Building level 8
Reconstruction on level 8
[3] Building level 8
[1] Building level 9
Creating AMGLevel 
[0] Building level 9
Reconstruction on level 9
[3] Building level 9
[1] Building level 10
Creating AMGLevel 
[0] Building level 10
Reconstruction on level 10
[1] Building level 11
[3] Building level 10
[1] Building level 12
Creating AMGLevel 
[0] Building level 11
Reconstruction on level 11
[1] Building level 13
[3] Building level 11
Creating AMGLevel 
[1] Building level 14
[0] Building level 12
Reconstruction on level 12
[3] Building level 12
Creating AMGLevel 
[0] Building level 13
Reconstruction on level 13
[3] Building level 13
Creating AMGLevel 
[0] Building level 14
Reconstruction on level 14
[3] Building level 14
Creating AMGLevel 
14 Level construction complete
initial dot_x = 113973
Iter #1 residual = 0.00143305
Iter #2 residual = 0.000757665
Iter #3 residual = 0.000436534
Iter #4 residual = 0.000270454
Iter #5 residual = 0.000163921
GPU: 5 iters: 1.62335 s: 2.0157 GB/s
GPUAMG:  Solving for pd, Initial residual = 0.00241985, Final residual = 0.000103325, No Iterations 5
[1] Building level 0
[2] Building level 0
[3] Building level 0
[0] Building level 0
[3] Building level 1
[2] Building level 1
[1] Building level 1
[0] Building level 1
[3] Building level 2
[2] Building level 2
[0] Building level 2
[1] Building level 2
[3] Building level 3
[2] Building level 3
[0] Building level 3
[1] Building level 3
[3] Building level 4
[0] Building level 4
[1] Building level 4
[2] Building level 4
[3] Building level 5
[0] Building level 5
[1] Building level 5
[2] Building level 5
[3] Building level 6
[0] Building level 6
[1] Building level 6
[2] Building level 6
[3] Building level 7
[0] Building level 7
[1] Building level 7
[3] Building level 8
[2] Building level 7
[3] Building level 9
[0] Building level 8
[3] Building level 10
[1] Building level 8
[3] Building level 11
[3] Building level 12
[3] Building level 13
[3] Building level 14
[0] Building level 9
[2] Building level 8
[1] Building level 9
[0] Building level 10
[0] Building level 11
[1] Building level 10
[0] Building level 12
[0] Building level 13
[0] Building level 14
14 Level construction complete
[1] Building level 11
[2] Building level 9
[1] Building level 12
[1] Building level 13
[1] Building level 14
[2] Building level 10
[2] Building level 11
[2] Building level 12
[2] Building level 13
[2] Building level 14
initial dot_x = 119212
Iter #1 residual = 0.00125838
Iter #2 residual = 0.000636802
Iter #3 residual = 0.000359167
Iter #4 residual = 0.000224182
Iter #5 residual = 0.000143801
Iter #6 residual = 9.53087e-05
Iter #7 residual = 6.24917e-05
GPU: 7 iters: 2.17235 s: 2.10881 GB/s
GPUAMG:  Solving for pd, Initial residual = 0.00103123, Final residual = 4.77222e-05, No Iterations 7
[2] Building level 0
[1] Building level 0
[3] Building level 0
[0] Building level 0
[3] Building level 1
[2] Building level 1
[1] Building level 1
[0] Building level 1
[2] Building level 2
[3] Building level 2
[0] Building level 2
[1] Building level 2
[3] Building level 3
[2] Building level 3
[0] Building level 3
[1] Building level 3
[3] Building level 4
[2] Building level 4
[1] Building level 4
[0] Building level 4
[3] Building level 5
[2] Building level 5
[1] Building level 5
[0] Building level 5
[3] Building level 6
[1] Building level 6
[0] Building level 6
[2] Building level 6
[3] Building level 7
[2] Building level 7
[1] Building level 7
[0] Building level 7
[3] Building level 8
[3] Building level 9
[2] Building level 8
[1] Building level 8
[3] Building level 10
[0] Building level 8
[3] Building level 11
[3] Building level 12
[3] Building level 13
[3] Building level 14
[2] Building level 9
[1] Building level 9
[0] Building level 9
[2] Building level 10
[1] Building level 10
[0] Building level 10
[2] Building level 11
[1] Building level 11
[1] Building level 12
[0] Building level 11
[2] Building level 12
[2] Building level 13
[1] Building level 13
[2] Building level 14
[0] Building level 12
[1] Building level 14
[0] Building level 13
[0] Building level 14
14 Level construction complete
initial dot_x = 115141
Iter #1 residual = 0.000168415
Iter #2 residual = 0.000105641
Iter #3 residual = 6.38276e-05
Iter #4 residual = 4.07337e-05
Iter #5 residual = 2.6004e-05
Iter #6 residual = 1.7684e-05
Iter #7 residual = 1.18509e-05
Iter #8 residual = 8.94039e-06
Iter #9 residual = 6.44857e-06
Iter #10 residual = 5.03189e-06
Iter #11 residual = 3.387e-06
Iter #12 residual = 3.71791e-06
Iter #13 residual = 1.67321e-06
Iter #14 residual = 1.80217e-06
Iter #15 residual = 7.20498e-07
Iter #16 residual = 4.37896e-07
Iter #17 residual = 3.07861e-07
Iter #18 residual = 2.33499e-07
Iter #19 residual = 1.51871e-07
Iter #20 residual = 1.03906e-07
GPU: 20 iters: 5.71412 s: 2.2906 GB/s
GPUAMG:  Solving for pd, Initial residual = 0.000399645, Final residual = 9.5377e-08, No Iterations 20
time step continuity errors : sum local = 4.449e-12, global = -1.19698e-24, cumulative = -5.55947e-24
ExecutionTime = 579.51 s  ClockTime = 599 s

Courant Number mean: 4.49207e-05 max: 0.00971308 velocity magnitude: 0.14937
Time = 0.01

MULES: Solving for alpha1
Liquid phase volume fraction = 0.00275421  Min(alpha1) = -1.61061e-29  Max(alpha1) = 1
MULES: Solving for alpha1
Liquid phase volume fraction = 0.00275421  Min(alpha1) = -2.13324e-29  Max(alpha1) = 1
[3] Building level 0
[0] Building level 0
[1] Building level 0
[2] Building level 0
[3] Building level 1
[0] Building level 1
[2] Building level 1
[1] Building level 1
[2] Building level 2
[0] Building level 2
Reconstruction on level 2
Creating AMGLevel 
[0] Building level 3
Reconstruction on level 3
[2] Building level 3
[3] Building level 2
[1] Building level 2
Creating AMGLevel 
[0] Building level 4
Reconstruction on level 4
[2] Building level 4
Creating AMGLevel 
[0] Building level 5
Reconstruction on level 5
[2] Building level 5
[1] Building level 3
[3] Building level 3
Creating AMGLevel 
[0] Building level 6
Reconstruction on level 6
[2] Building level 6
Creating AMGLevel 
[0] Building level 7
Reconstruction on level 7
[2] Building level 7
Creating AMGLevel 
[0] Building level 8
Reconstruction on level 8
[2] Building level 8
Creating AMGLevel 
[0] Building level 9
Reconstruction on level 9
Creating AMGLevel 
[0] Building level 10
Reconstruction on level 10
[2] Building level 9
Creating AMGLevel 
[0] Building level 11
Reconstruction on level 11
Creating AMGLevel 
[0] Building level 12
Reconstruction on level 12
[2] Building level 10
Creating AMGLevel 
[0] Building level 13
Reconstruction on level 13
Creating AMGLevel 
[0] Building level 14
Reconstruction on level 14
Creating AMGLevel 
14 Level construction complete
[2] Building level 11
[2] Building level 12
[2] Building level 13
[2] Building level 14
[1] Building level 4
[3] Building level 4
[1] Building level 5
[3] Building level 5
[1] Building level 6
[3] Building level 6
[1] Building level 7
[3] Building level 7
[1] Building level 8
[3] Building level 8
[1] Building level 9
[3] Building level 9
[1] Building level 10
[1] Building level 11
[3] Building level 10
[1] Building level 12
[1] Building level 13
[3] Building level 11
[1] Building level 14
[3] Building level 12
[3] Building level 13
[3] Building level 14
initial dot_x = 113839
Iter #1 residual = 0.00146727
Iter #2 residual = 0.000767971
Iter #3 residual = 0.000437421
Iter #4 residual = 0.000266827
Iter #5 residual = 0.000165179
GPU: 5 iters: 1.58465 s: 2.06493 GB/s
GPUAMG:  Solving for pd, Initial residual = 0.0025871, Final residual = 0.000105871, No Iterations 5
[0] Building level 0
[1] Building level 0
[2] Building level 0
[3] Building level 0
[3] Building level 1
[1] Building level 1
[0] Building level 1
[2] Building level 1
[3] Building level 2
[2] Building level 2
[1] Building level 2
[0] Building level 2
[3] Building level 3
[2] Building level 3
[0] Building level 3
[1] Building level 3
[3] Building level 4
[1] Building level 4
[0] Building level 4
[2] Building level 4
[3] Building level 5
[1] Building level 5
[0] Building level 5
[2] Building level 5
[3] Building level 6
[1] Building level 6
[0] Building level 6
[2] Building level 6
[3] Building level 7
[1] Building level 7
[0] Building level 7
[3] Building level 8
[2] Building level 7
[3] Building level 9
[1] Building level 8
[3] Building level 10
[0] Building level 8
[3] Building level 11
[3] Building level 12
[3] Building level 13
[1] Building level 9
[3] Building level 14
[0] Building level 9
[2] Building level 8
[1] Building level 10
[1] Building level 11
[0] Building level 10
[1] Building level 12
[1] Building level 13
[1] Building level 14
[0] Building level 11
[0] Building level 12
[0] Building level 13
[0] Building level 14
14 Level construction complete
[2] Building level 9
[2] Building level 10
[2] Building level 11
[2] Building level 12
[2] Building level 13
[2] Building level 14
initial dot_x = 119354
Iter #1 residual = 0.00126083
Iter #2 residual = 0.00064191
Iter #3 residual = 0.000360311
Iter #4 residual = 0.000220845
Iter #5 residual = 0.000136293
Iter #6 residual = 9.12356e-05
Iter #7 residual = 6.20818e-05
GPU: 7 iters: 2.102 s: 2.17938 GB/s
GPUAMG:  Solving for pd, Initial residual = 0.00101499, Final residual = 3.85622e-05, No Iterations 7
[1] Building level 0
[2] Building level 0
[0] Building level 0
[3] Building level 0
[3] Building level 1
[1] Building level 1
[0] Building level 1
[2] Building level 1
[3] Building level 2
[2] Building level 2
[0] Building level 2
[1] Building level 2
[3] Building level 3
[2] Building level 3
[0] Building level 3
[1] Building level 3
[3] Building level 4
[2] Building level 4
[0] Building level 4
[1] Building level 4
[3] Building level 5
[0] Building level 5
[2] Building level 5
[1] Building level 5
[3] Building level 6
[2] Building level 6
[0] Building level 6
[1] Building level 6
[3] Building level 7
[2] Building level 7
[0] Building level 7
[1] Building level 7
[3] Building level 8
[3] Building level 9
[0] Building level 8
[2] Building level 8
[3] Building level 10
[1] Building level 8
[3] Building level 11
[3] Building level 12
[3] Building level 13
[3] Building level 14
[0] Building level 9
[2] Building level 9
[1] Building level 9
[0] Building level 10
[2] Building level 10
[1] Building level 10
[0] Building level 11
[2] Building level 11
[0] Building level 12
[1] Building level 11
[0] Building level 13
[2] Building level 12
[0] Building level 14
14 Level construction complete
[2] Building level 13
[1] Building level 12
[2] Building level 14
[1] Building level 13
[1] Building level 14
initial dot_x = 114328
Iter #1 residual = 0.000164793
Iter #2 residual = 9.79076e-05
Iter #3 residual = 6.04597e-05
Iter #4 residual = 4.07979e-05
Iter #5 residual = 2.71049e-05
Iter #6 residual = 1.79915e-05
Iter #7 residual = 1.21915e-05
Iter #8 residual = 8.36993e-06
Iter #9 residual = 5.94894e-06
Iter #10 residual = 4.21669e-06
Iter #11 residual = 3.07844e-06
Iter #12 residual = 2.23536e-06
Iter #13 residual = 1.65948e-06
Iter #14 residual = 1.18325e-06
Iter #15 residual = 8.9858e-07
Iter #16 residual = 6.33567e-07
Iter #17 residual = 4.92219e-07
Iter #18 residual = 3.4124e-07
Iter #19 residual = 2.76704e-07
Iter #20 residual = 1.85364e-07
Iter #21 residual = 1.67078e-07
GPU: 21 iters: 5.81025 s: 2.36533 GB/s
GPUAMG:  Solving for pd, Initial residual = 0.000339734, Final residual = 9.5679e-08, No Iterations 21
time step continuity errors : sum local = 4.39544e-12, global = -8.55684e-24, cumulative = -1.41163e-23
ExecutionTime = 640.79 s  ClockTime = 662 s

End

Finalising parallel run
