 Data for JOB [45139,1] offset 0

 ========================   JOB MAP   ========================

 Data for node: ivb124	Num slots: 4	Max slots: 0	Num procs: 4
 	Process OMPI jobid: [45139,1] App: 0 Process rank: 0
 	Process OMPI jobid: [45139,1] App: 0 Process rank: 1
 	Process OMPI jobid: [45139,1] App: 0 Process rank: 2
 	Process OMPI jobid: [45139,1] App: 0 Process rank: 3

 =============================================================
[ivb124:23409] MCW rank 2 bound to socket 0[core 2[hwt 0]]: [././B/././././././.][./././././././././.]
[ivb124:23409] MCW rank 3 bound to socket 0[core 3[hwt 0]]: [./././B/./././././.][./././././././././.]
[ivb124:23409] MCW rank 0 bound to socket 0[core 0[hwt 0]]: [B/././././././././.][./././././././././.]
[ivb124:23409] MCW rank 1 bound to socket 0[core 1[hwt 0]]: [./B/./././././././.][./././././././././.]
/*---------------------------------------------------------------------------*\
| =========                 |                                                 |
| \\      /  F ield         | foam-extend: Open Source CFD                    |
|  \\    /   O peration     | Version:     3.1                                |
|   \\  /    A nd           | Web:         http://www.extend-project.de       |
|    \\/     M anipulation  |                                                 |
\*---------------------------------------------------------------------------*/
Build    : 3.1-e2da948002a2
Exec     : interFoam -parallel
Date     : May 25 2016
Time     : 18:42:35
Host     : ivb124
PID      : 23437
CtrlDict : /home-2/vplatonov/foam/foam-extend-3.1/etc/controlDict
Case     : /home/vplatonov/tests/rt12mln
nProcs   : 4
Slaves : 
3
(
ivb124.23448
ivb124.23442
ivb124.23451
)

Pstream initialized with:
    floatTransfer     : 0
    nProcsSimpleSum   : 0
    commsType         : blocking
SigFpe   : Enabling floating point exception trapping (FOAM_SIGFPE).

// * * * * * * * * * * * * * * * * * * * * * * * * * * * * * * * * * * * * * //
Create time

Create mesh for time = 0


Reading g
Reading field pd

Reading field alpha1

Reading field U

Reading/calculating face flux field phi

Reading transportProperties

Selecting incompressible transport model Newtonian
Selecting incompressible transport model Newtonian
Calculating field g.h

Selecting turbulence model type laminar
time step continuity errors : sum local = 0, global = 0, cumulative = 0
Created persistent data with name pcorr
GPUAMG:  Solving for pcorr, Initial residual = 0, Final residual = 0, No Iterations 0
time step continuity errors : sum local = 0, global = 0, cumulative = 0
Courant Number mean: 0 max: 0 velocity magnitude: 0

Starting time loop

Courant Number mean: 0 max: 0 velocity magnitude: 0
Time = 0.001

MULES: Solving for alpha1
Liquid phase volume fraction = 0.00275421  Min(alpha1) = 0  Max(alpha1) = 1
MULES: Solving for alpha1
Liquid phase volume fraction = 0.00275421  Min(alpha1) = 0  Max(alpha1) = 1
Created persistent data with name pd
[0] Building level 0
[1] Building level 0
[2] Building level 0
[3] Building level 0
Creating AMGLevel 
[3] Building level 1
[2] Building level 1
[1] Building level 1
[0] Building level 1
[2] Building level 2
[1] Building level 2
[3] Building level 2
Creating AMGLevel 
[0] Building level 2
[1] Building level 3
[2] Building level 3
[3] Building level 3
Creating AMGLevel 
[0] Building level 3
[1] Building level 4
[2] Building level 4
[3] Building level 4
Creating AMGLevel 
[0] Building level 4
[1] Building level 5
[2] Building level 5
[3] Building level 5
Creating AMGLevel 
[0] Building level 5
[1] Building level 6
[2] Building level 6
[3] Building level 6
[1] Building level 7
[2] Building level 7
[1] Building level 8
Creating AMGLevel 
[2] Building level 8
[0] Building level 6
[3] Building level 7
[1] Building level 9
[2] Building level 9
[1] Building level 10
[2] Building level 10
[1] Building level 11
[2] Building level 11
[1] Building level 12
[2] Building level 12
[1] Building level 13
[3] Building level 8
[2] Building level 13
[1] Building level 14
[2] Building level 14
[3] Building level 9
Creating AMGLevel 
[0] Building level 7
[3] Building level 10
[3] Building level 11
[3] Building level 12
[3] Building level 13
[3] Building level 14
Creating AMGLevel 
[0] Building level 8
Creating AMGLevel 
[0] Building level 9
Creating AMGLevel 
[0] Building level 10
Creating AMGLevel 
[0] Building level 11
Creating AMGLevel 
[0] Building level 12
Creating AMGLevel 
[0] Building level 13
Creating AMGLevel 
[0] Building level 14
Creating AMGLevel 
14 Level construction complete
initial dot_x = 0
Iter #1 residual = 0.0732926
GPU: 1 iters: 0.5713 s: 1.14552 GB/s
GPUAMG:  Solving for pd, Initial residual = 1, Final residual = 0.0271103, No Iterations 1
[1] Building level 0
[0] Building level 0
[3] Building level 0
[2] Building level 0
[3] Building level 1
[2] Building level 1
[0] Building level 1
[1] Building level 1
[1] Building level 2
[3] Building level 2
[2] Building level 2
[0] Building level 2
[1] Building level 3
[3] Building level 3
[0] Building level 3
[2] Building level 3
[1] Building level 4
[3] Building level 4
[0] Building level 4
[2] Building level 4
[1] Building level 5
[3] Building level 5
[0] Building level 5
[2] Building level 5
[1] Building level 6
[3] Building level 6
[1] Building level 7
[0] Building level 6
[2] Building level 6
[1] Building level 8
[3] Building level 7
[1] Building level 9
[0] Building level 7
[1] Building level 10
[1] Building level 11
[1] Building level 12
[1] Building level 13
[1] Building level 14
[2] Building level 7
[3] Building level 8
[0] Building level 8
[3] Building level 9
[2] Building level 8
[3] Building level 10
[0] Building level 9
[3] Building level 11
[3] Building level 12
[3] Building level 13
[3] Building level 14
[0] Building level 10
[2] Building level 9
[0] Building level 11
[0] Building level 12
[0] Building level 13
[0] Building level 14
[2] Building level 10
14 Level construction complete
[2] Building level 11
[2] Building level 12
[2] Building level 13
[2] Building level 14
initial dot_x = 75597.1
Iter #1 residual = 0.00835606
Iter #2 residual = 0.00430122
Iter #3 residual = 0.00229662
Iter #4 residual = 0.00122676
GPU: 4 iters: 1.41916 s: 1.84458 GB/s
GPUAMG:  Solving for pd, Initial residual = 0.019502, Final residual = 0.000642863, No Iterations 4
[3] Building level 0
[0] Building level 0
[2] Building level 0
[1] Building level 0
[3] Building level 1
[2] Building level 1
[1] Building level 1
[0] Building level 1
[1] Building level 2
[3] Building level 2
[2] Building level 2
[0] Building level 2
[1] Building level 3
[3] Building level 3
[0] Building level 3
[2] Building level 3
[1] Building level 4
[3] Building level 4
[0] Building level 4
[2] Building level 4
[1] Building level 5
[3] Building level 5
[0] Building level 5
[2] Building level 5
[1] Building level 6
[3] Building level 6
[0] Building level 6
[1] Building level 7
[2] Building level 6
[1] Building level 8
[3] Building level 7
[1] Building level 9
[0] Building level 7
[1] Building level 10
[1] Building level 11
[1] Building level 12
[1] Building level 13
[1] Building level 14
[2] Building level 7
[3] Building level 8
[0] Building level 8
[3] Building level 9
[2] Building level 8
[0] Building level 9
[3] Building level 10
[3] Building level 11
[3] Building level 12
[3] Building level 13
[0] Building level 10
[3] Building level 14
[0] Building level 11
[2] Building level 9
[0] Building level 12
[0] Building level 13
[0] Building level 14
14 Level construction complete
[2] Building level 10
[2] Building level 11
[2] Building level 12
[2] Building level 13
[2] Building level 14
initial dot_x = 128903
Iter #1 residual = 0.00249765
Iter #2 residual = 0.00114314
Iter #3 residual = 0.000554367
Iter #4 residual = 0.000276894
Iter #5 residual = 0.000144388
Iter #6 residual = 8.17075e-05
Iter #7 residual = 5.00716e-05
Iter #8 residual = 3.08621e-05
Iter #9 residual = 1.97195e-05
Iter #10 residual = 1.26907e-05
Iter #11 residual = 8.34194e-06
Iter #12 residual = 5.53801e-06
Iter #13 residual = 3.75199e-06
Iter #14 residual = 2.62298e-06
Iter #15 residual = 1.91459e-06
Iter #16 residual = 1.43288e-06
Iter #17 residual = 1.10544e-06
Iter #18 residual = 8.6963e-07
Iter #19 residual = 6.90648e-07
Iter #20 residual = 5.58457e-07
Iter #21 residual = 4.47657e-07
Iter #22 residual = 3.69975e-07
Iter #23 residual = 2.96283e-07
Iter #24 residual = 2.49902e-07
Iter #25 residual = 1.98515e-07
Iter #26 residual = 1.76759e-07
Iter #27 residual = 1.34351e-07
Iter #28 residual = 1.28619e-07
GPU: 28 iters: 8.21828 s: 2.22969 GB/s
GPUAMG:  Solving for pd, Initial residual = 0.00621903, Final residual = 9.13692e-08, No Iterations 28
time step continuity errors : sum local = 6.80147e-12, global = 4.75077e-25, cumulative = 4.75077e-25
ExecutionTime = 93.58 s  ClockTime = 105 s

Courant Number mean: 4.8759e-06 max: 0.00216224 velocity magnitude: 0.033785
Time = 0.002

MULES: Solving for alpha1
Liquid phase volume fraction = 0.00275421  Min(alpha1) = 0  Max(alpha1) = 1
MULES: Solving for alpha1
Liquid phase volume fraction = 0.00275421  Min(alpha1) = 0  Max(alpha1) = 1
[2] Building level 0
[0] Building level 0
[1] Building level 0
[3] Building level 0
[3] Building level 1
[2] Building level 1
[1] Building level 1
[0] Building level 1
Reconstruction on level 1
[2] Building level 2
[1] Building level 2
[3] Building level 2
Creating AMGLevel 
[0] Building level 2
Reconstruction on level 2
[1] Building level 3
[2] Building level 3
[3] Building level 3
Creating AMGLevel 
[0] Building level 3
Reconstruction on level 3
[1] Building level 4
[2] Building level 4
[3] Building level 4
Creating AMGLevel 
[0] Building level 4
Reconstruction on level 4
[1] Building level 5
[2] Building level 5
[3] Building level 5
[1] Building level 6
Creating AMGLevel 
[0] Building level 5
Reconstruction on level 5
[1] Building level 7
[2] Building level 6
[1] Building level 8
[3] Building level 6
[1] Building level 9
[1] Building level 10
[2] Building level 7
Creating AMGLevel 
[1] Building level 11
[0] Building level 6
Reconstruction on level 6
[1] Building level 12
[1] Building level 13
[1] Building level 14
[2] Building level 8
[3] Building level 7
[2] Building level 9
[2] Building level 10
[2] Building level 11
Creating AMGLevel 
[0] Building level 7
Reconstruction on level 7
[3] Building level 8
[2] Building level 12
[2] Building level 13
[2] Building level 14
[3] Building level 9
[3] Building level 10
Creating AMGLevel 
[0] Building level 8
Reconstruction on level 8
[3] Building level 11
[3] Building level 12
[3] Building level 13
[3] Building level 14
Creating AMGLevel 
[0] Building level 9
Reconstruction on level 9
Creating AMGLevel 
[0] Building level 10
Reconstruction on level 10
Creating AMGLevel 
[0] Building level 11
Reconstruction on level 11
Creating AMGLevel 
[0] Building level 12
Reconstruction on level 12
Creating AMGLevel 
[0] Building level 13
Reconstruction on level 13
Creating AMGLevel 
[0] Building level 14
Reconstruction on level 14
Creating AMGLevel 
14 Level construction complete
initial dot_x = 114256
Iter #1 residual = 0.000813114
Iter #2 residual = 0.000401579
Iter #3 residual = 0.000223607
GPU: 3 iters: 1.20068 s: 1.63516 GB/s
GPUAMG:  Solving for pd, Initial residual = 0.0033595, Final residual = 0.000127442, No Iterations 3
[0] Building level 0
[2] Building level 0
[1] Building level 0
[3] Building level 0
[3] Building level 1
[2] Building level 1
[1] Building level 1
[0] Building level 1
[3] Building level 2
[2] Building level 2
[0] Building level 2
[1] Building level 2
[3] Building level 3
[0] Building level 3
[1] Building level 3
[2] Building level 3
[1] Building level 4
[0] Building level 4
[3] Building level 4
[2] Building level 4
[1] Building level 5
[0] Building level 5
[3] Building level 5
[2] Building level 5
[1] Building level 6
[0] Building level 6
[1] Building level 7
[3] Building level 6
[1] Building level 8
[1] Building level 9
[0] Building level 7
[2] Building level 6
[1] Building level 10
[1] Building level 11
[1] Building level 12
[1] Building level 13
[1] Building level 14
[3] Building level 7
[0] Building level 8
[0] Building level 9
[0] Building level 10
[0] Building level 11
[0] Building level 12
[3] Building level 8
[0] Building level 13
[0] Building level 14
14 Level construction complete
[2] Building level 7
[3] Building level 9
[3] Building level 10
[3] Building level 11
[3] Building level 12
[3] Building level 13
[3] Building level 14
[2] Building level 8
[2] Building level 9
[2] Building level 10
[2] Building level 11
[2] Building level 12
[2] Building level 13
[2] Building level 14
initial dot_x = 116951
Iter #1 residual = 0.000553197
Iter #2 residual = 0.000268536
Iter #3 residual = 0.000131455
GPU: 3 iters: 1.20526 s: 1.62895 GB/s
GPUAMG:  Solving for pd, Initial residual = 0.00211626, Final residual = 6.95365e-05, No Iterations 3
[2] Building level 0
[1] Building level 0
[0] Building level 0
[3] Building level 0
[3] Building level 1
[1] Building level 1
[2] Building level 1
[0] Building level 1
[3] Building level 2
[2] Building level 2
[1] Building level 2
[0] Building level 2
[3] Building level 3
[1] Building level 3
[0] Building level 3
[2] Building level 3
[1] Building level 4
[0] Building level 4
[3] Building level 4
[2] Building level 4
[1] Building level 5
[0] Building level 5
[3] Building level 5
[2] Building level 5
[1] Building level 6
[0] Building level 6
[1] Building level 7
[3] Building level 6
[1] Building level 8
[1] Building level 9
[0] Building level 7
[2] Building level 6
[1] Building level 10
[1] Building level 11
[1] Building level 12
[1] Building level 13
[1] Building level 14
[0] Building level 8
[3] Building level 7
[0] Building level 9
[0] Building level 10
[0] Building level 11
[0] Building level 12
[3] Building level 8
[0] Building level 13
[0] Building level 14
14 Level construction complete
[2] Building level 7
[3] Building level 9
[3] Building level 10
[3] Building level 11
[3] Building level 12
[3] Building level 13
[3] Building level 14
[2] Building level 8
[2] Building level 9
[2] Building level 10
[2] Building level 11
[2] Building level 12
[2] Building level 13
[2] Building level 14
initial dot_x = 114510
Iter #1 residual = 0.000841067
Iter #2 residual = 0.000522271
Iter #3 residual = 0.000282693
Iter #4 residual = 0.000168462
Iter #5 residual = 9.62903e-05
Iter #6 residual = 6.47203e-05
Iter #7 residual = 4.22992e-05
Iter #8 residual = 2.78707e-05
Iter #9 residual = 1.91203e-05
Iter #10 residual = 1.26602e-05
Iter #11 residual = 8.60409e-06
Iter #12 residual = 5.90238e-06
Iter #13 residual = 4.18117e-06
Iter #14 residual = 3.01088e-06
Iter #15 residual = 2.14008e-06
Iter #16 residual = 1.60191e-06
Iter #17 residual = 1.35541e-06
Iter #18 residual = 1.00198e-06
Iter #19 residual = 6.2938e-07
Iter #20 residual = 4.46865e-07
Iter #21 residual = 3.16975e-07
Iter #22 residual = 2.13805e-07
Iter #23 residual = 1.87134e-07
Iter #24 residual = 1.54778e-07
GPU: 24 iters: 7.4962 s: 2.09526 GB/s
GPUAMG:  Solving for pd, Initial residual = 0.0019276, Final residual = 8.17917e-08, No Iterations 24
time step continuity errors : sum local = 3.90444e-12, global = 2.65353e-25, cumulative = 7.4043e-25
ExecutionTime = 153.92 s  ClockTime = 168 s

Courant Number mean: 7.67656e-06 max: 0.00313308 velocity magnitude: 0.0489543
Time = 0.003

MULES: Solving for alpha1
Liquid phase volume fraction = 0.00275421  Min(alpha1) = 0  Max(alpha1) = 1
MULES: Solving for alpha1
Liquid phase volume fraction = 0.00275421  Min(alpha1) = -1.4803e-30  Max(alpha1) = 1
[0] Building level 0
[2] Building level 0
[1] Building level 0
[3] Building level 0
[3] Building level 1
[2] Building level 1
[1] Building level 1
[0] Building level 1
Reconstruction on level 1
[1] Building level 2
[2] Building level 2
[1] Building level 3
[2] Building level 3
[3] Building level 2
Creating AMGLevel 
[1] Building level 4
[0] Building level 2
Reconstruction on level 2
[2] Building level 4
[1] Building level 5
[2] Building level 5
[1] Building level 6
[3] Building level 3
[2] Building level 6
Creating AMGLevel 
[1] Building level 7
[0] Building level 3
Reconstruction on level 3
[1] Building level 8
[2] Building level 7
[1] Building level 9
[1] Building level 10
[1] Building level 11
[1] Building level 12
[1] Building level 13
[1] Building level 14
[2] Building level 8
[2] Building level 9
[2] Building level 10
[2] Building level 11
[2] Building level 12
[2] Building level 13
[2] Building level 14
[3] Building level 4
Creating AMGLevel 
[0] Building level 4
Reconstruction on level 4
[3] Building level 5
Creating AMGLevel 
[0] Building level 5
Reconstruction on level 5
[3] Building level 6
Creating AMGLevel 
[0] Building level 6
Reconstruction on level 6
[3] Building level 7
[3] Building level 8
Creating AMGLevel 
[0] Building level 7
Reconstruction on level 7
[3] Building level 9
[3] Building level 10
[3] Building level 11
[3] Building level 12
[3] Building level 13
[3] Building level 14
Creating AMGLevel 
[0] Building level 8
Reconstruction on level 8
Creating AMGLevel 
[0] Building level 9
Reconstruction on level 9
Creating AMGLevel 
[0] Building level 10
Reconstruction on level 10
Creating AMGLevel 
[0] Building level 11
Reconstruction on level 11
Creating AMGLevel 
[0] Building level 12
Reconstruction on level 12
Creating AMGLevel 
[0] Building level 13
Reconstruction on level 13
Creating AMGLevel 
[0] Building level 14
Reconstruction on level 14
Creating AMGLevel 
14 Level construction complete
initial dot_x = 113224
Iter #1 residual = 0.00216313
Iter #2 residual = 0.00124728
Iter #3 residual = 0.000724834
Iter #4 residual = 0.000453848
Iter #5 residual = 0.000274866
GPU: 5 iters: 1.77896 s: 1.83939 GB/s
GPUAMG:  Solving for pd, Initial residual = 0.00424289, Final residual = 0.000162502, No Iterations 5
[3] Building level 0
[1] Building level 0
[2] Building level 0
[0] Building level 0
[3] Building level 1
[2] Building level 1
[0] Building level 1
[1] Building level 1
[3] Building level 2
[2] Building level 2
[1] Building level 2
[0] Building level 2
[3] Building level 3
[2] Building level 3
[1] Building level 3
[0] Building level 3
[1] Building level 4
[0] Building level 4
[3] Building level 4
[2] Building level 4
[1] Building level 5
[0] Building level 5
[3] Building level 5
[2] Building level 5
[1] Building level 6
[0] Building level 6
[3] Building level 6
[1] Building level 7
[2] Building level 6
[0] Building level 7
[3] Building level 7
[1] Building level 8
[0] Building level 8
[1] Building level 9
[3] Building level 8
[1] Building level 10
[1] Building level 11
[1] Building level 12
[0] Building level 9
[1] Building level 13
[1] Building level 14
[3] Building level 9
[0] Building level 10
[3] Building level 10
[2] Building level 7
[0] Building level 11
[3] Building level 11
[0] Building level 12
[0] Building level 13
[3] Building level 12
[0] Building level 14
[3] Building level 13
14 Level construction complete
[3] Building level 14
[2] Building level 8
[2] Building level 9
[2] Building level 10
[2] Building level 11
[2] Building level 12
[2] Building level 13
[2] Building level 14
initial dot_x = 121784
Iter #1 residual = 0.00133131
Iter #2 residual = 0.000697641
Iter #3 residual = 0.000393073
Iter #4 residual = 0.000232547
GPU: 4 iters: 1.48829 s: 1.7589 GB/s
GPUAMG:  Solving for pd, Initial residual = 0.00305127, Final residual = 0.000149481, No Iterations 4
[1] Building level 0
[2] Building level 0
[3] Building level 0
[0] Building level 0
[3] Building level 1
[2] Building level 1
[1] Building level 1
[0] Building level 1
[3] Building level 2
[2] Building level 2
[1] Building level 2
[0] Building level 2
[3] Building level 3
[2] Building level 3
[1] Building level 3
[0] Building level 3
[1] Building level 4
[0] Building level 4
[3] Building level 4
[2] Building level 4
[1] Building level 5
[0] Building level 5
[3] Building level 5
[2] Building level 5
[1] Building level 6
[0] Building level 6
[3] Building level 6
[1] Building level 7
[2] Building level 6
[0] Building level 7
[1] Building level 8
[1] Building level 9
[3] Building level 7
[0] Building level 8
[1] Building level 10
[1] Building level 11
[1] Building level 12
[1] Building level 13
[1] Building level 14
[0] Building level 9
[2] Building level 7
[0] Building level 10
[0] Building level 11
[3] Building level 8
[0] Building level 12
[0] Building level 13
[0] Building level 14
14 Level construction complete
[3] Building level 9
[2] Building level 8
[3] Building level 10
[3] Building level 11
[3] Building level 12
[3] Building level 13
[3] Building level 14
[2] Building level 9
[2] Building level 10
[2] Building level 11
[2] Building level 12
[2] Building level 13
[2] Building level 14
initial dot_x = 112682
Iter #1 residual = 0.000498275
Iter #2 residual = 0.000207932
Iter #3 residual = 0.000125682
Iter #4 residual = 7.43436e-05
Iter #5 residual = 4.37695e-05
Iter #6 residual = 2.70766e-05
Iter #7 residual = 2.07099e-05
Iter #8 residual = 1.58055e-05
Iter #9 residual = 1.08441e-05
Iter #10 residual = 7.78729e-06
Iter #11 residual = 5.93596e-06
Iter #12 residual = 4.0651e-06
Iter #13 residual = 2.9169e-06
Iter #14 residual = 1.85289e-06
Iter #15 residual = 1.6965e-06
Iter #16 residual = 1.37926e-06
Iter #17 residual = 1.33889e-06
Iter #18 residual = 6.76692e-07
Iter #19 residual = 5.30353e-07
Iter #20 residual = 7.60677e-07
Iter #21 residual = 4.68733e-07
Iter #22 residual = 2.53301e-07
Iter #23 residual = 1.61492e-07
Iter #24 residual = 3.11819e-07
Iter #25 residual = 4.70175e-07
Iter #26 residual = 2.62475e-07
Iter #27 residual = 1.70709e-07
GPU: 27 iters: 8.30778 s: 2.1269 GB/s
GPUAMG:  Solving for pd, Initial residual = 0.00266029, Final residual = 6.77994e-08, No Iterations 27
time step continuity errors : sum local = 3.5797e-12, global = -8.81051e-25, cumulative = -1.40621e-25
ExecutionTime = 215.72 s  ClockTime = 231 s

Courant Number mean: 1.35763e-05 max: 0.00482758 velocity magnitude: 0.075431
Time = 0.004

MULES: Solving for alpha1
Liquid phase volume fraction = 0.00275421  Min(alpha1) = -2.13505e-30  Max(alpha1) = 1
MULES: Solving for alpha1
Liquid phase volume fraction = 0.00275421  Min(alpha1) = -2.09088e-30  Max(alpha1) = 1
[3] Building level 0
[1] Building level 0
[0] Building level 0
[2] Building level 0
[3] Building level 1
[2] Building level 1
[0] Building level 1
Reconstruction on level 1
[1] Building level 1
[1] Building level 2
[1] Building level 3
[2] Building level 2
[3] Building level 2
Creating AMGLevel 
[0] Building level 2
Reconstruction on level 2
[1] Building level 4
[1] Building level 5
[1] Building level 6
[2] Building level 3
[3] Building level 3
Creating AMGLevel 
[0] Building level 3
Reconstruction on level 3
[1] Building level 7
[1] Building level 8
[1] Building level 9
[1] Building level 10
[1] Building level 11
[1] Building level 12
[1] Building level 13
[1] Building level 14
[2] Building level 4
[3] Building level 4
Creating AMGLevel 
[0] Building level 4
Reconstruction on level 4
[2] Building level 5
[3] Building level 5
Creating AMGLevel 
[0] Building level 5
Reconstruction on level 5
[2] Building level 6
[3] Building level 6
[2] Building level 7
Creating AMGLevel 
[0] Building level 6
Reconstruction on level 6
[2] Building level 8
[3] Building level 7
[2] Building level 9
[2] Building level 10
[2] Building level 11
[3] Building level 8
[2] Building level 12
[2] Building level 13
[2] Building level 14
Creating AMGLevel 
[0] Building level 7
Reconstruction on level 7
[3] Building level 9
[3] Building level 10
[3] Building level 11
[3] Building level 12
[3] Building level 13
[3] Building level 14
Creating AMGLevel 
[0] Building level 8
Reconstruction on level 8
Creating AMGLevel 
[0] Building level 9
Reconstruction on level 9
Creating AMGLevel 
[0] Building level 10
Reconstruction on level 10
Creating AMGLevel 
[0] Building level 11
Reconstruction on level 11
Creating AMGLevel 
[0] Building level 12
Reconstruction on level 12
Creating AMGLevel 
[0] Building level 13
Reconstruction on level 13
Creating AMGLevel 
[0] Building level 14
Reconstruction on level 14
Creating AMGLevel 
14 Level construction complete
initial dot_x = 114120
Iter #1 residual = 0.00140266
Iter #2 residual = 0.000787444
Iter #3 residual = 0.000444695
Iter #4 residual = 0.000275579
Iter #5 residual = 0.000173201
GPU: 5 iters: 1.69949 s: 1.92539 GB/s
GPUAMG:  Solving for pd, Initial residual = 0.00342964, Final residual = 0.000127532, No Iterations 5
[3] Building level 0
[1] Building level 0
[2] Building level 0
[0] Building level 0
[3] Building level 1
[2] Building level 1
[0] Building level 1
[1] Building level 1
[2] Building level 2
[0] Building level 2
[3] Building level 2
[1] Building level 2
[2] Building level 3
[0] Building level 3
[3] Building level 3
[1] Building level 3
[0] Building level 4
[3] Building level 4
[2] Building level 4
[1] Building level 4
[0] Building level 5
[3] Building level 5
[2] Building level 5
[1] Building level 5
[3] Building level 6
[0] Building level 6
[2] Building level 6
[3] Building level 7
[1] Building level 6
[0] Building level 7
[3] Building level 8
[0] Building level 8
[2] Building level 7
[3] Building level 9
[0] Building level 9
[3] Building level 10
[3] Building level 11
[3] Building level 12
[1] Building level 7
[3] Building level 13
[3] Building level 14
[0] Building level 10
[0] Building level 11
[0] Building level 12
[2] Building level 8
[0] Building level 13
[0] Building level 14
14 Level construction complete
[2] Building level 9
[1] Building level 8
[2] Building level 10
[2] Building level 11
[2] Building level 12
[2] Building level 13
[2] Building level 14
[1] Building level 9
[1] Building level 10
[1] Building level 11
[1] Building level 12
[1] Building level 13
[1] Building level 14
initial dot_x = 118431
Iter #1 residual = 0.0020463
Iter #2 residual = 0.00117006
Iter #3 residual = 0.000645865
Iter #4 residual = 0.000397653
Iter #5 residual = 0.000244105
Iter #6 residual = 0.00016111
GPU: 6 iters: 1.97984 s: 1.98331 GB/s
GPUAMG:  Solving for pd, Initial residual = 0.00320736, Final residual = 0.000112261, No Iterations 6
[1] Building level 0
[2] Building level 0
[0] Building level 0
[3] Building level 0
[3] Building level 1
[2] Building level 1
[0] Building level 1
[1] Building level 1
[2] Building level 2
[0] Building level 2
[3] Building level 2
[1] Building level 2
[2] Building level 3
[0] Building level 3
[3] Building level 3
[1] Building level 3
[0] Building level 4
[3] Building level 4
[2] Building level 4
[1] Building level 4
[0] Building level 5
[3] Building level 5
[2] Building level 5
[1] Building level 5
[3] Building level 6
[0] Building level 6
[2] Building level 6
[3] Building level 7
[1] Building level 6
[0] Building level 7
[3] Building level 8
[0] Building level 8
[2] Building level 7
[3] Building level 9
[0] Building level 9
[3] Building level 10
[3] Building level 11
[3] Building level 12
[1] Building level 7
[3] Building level 13
[3] Building level 14
[0] Building level 10
[0] Building level 11
[0] Building level 12
[2] Building level 8
[0] Building level 13
[0] Building level 14
14 Level construction complete
[2] Building level 9
[1] Building level 8
[2] Building level 10
[2] Building level 11
[2] Building level 12
[2] Building level 13
[2] Building level 14
[1] Building level 9
[1] Building level 10
[1] Building level 11
[1] Building level 12
[1] Building level 13
[1] Building level 14
initial dot_x = 115148
Iter #1 residual = 0.000852872
Iter #2 residual = 0.000484969
Iter #3 residual = 0.000256154
Iter #4 residual = 0.000155088
Iter #5 residual = 9.74171e-05
Iter #6 residual = 6.04045e-05
Iter #7 residual = 3.64403e-05
Iter #8 residual = 2.2066e-05
Iter #9 residual = 1.43741e-05
Iter #10 residual = 9.29468e-06
Iter #11 residual = 5.94499e-06
Iter #12 residual = 4.13014e-06
Iter #13 residual = 3.08097e-06
Iter #14 residual = 2.13213e-06
Iter #15 residual = 1.64896e-06
Iter #16 residual = 1.05845e-06
Iter #17 residual = 8.93797e-07
Iter #18 residual = 6.5439e-07
Iter #19 residual = 4.14079e-07
Iter #20 residual = 3.59368e-07
Iter #21 residual = 2.10657e-07
Iter #22 residual = 2.27819e-07
GPU: 22 iters: 6.51152 s: 2.2111 GB/s
GPUAMG:  Solving for pd, Initial residual = 0.00240425, Final residual = 8.46262e-08, No Iterations 22
time step continuity errors : sum local = 4.04739e-12, global = -6.92488e-25, cumulative = -8.33109e-25
ExecutionTime = 276.46 s  ClockTime = 294 s

Courant Number mean: 1.92536e-05 max: 0.0059821 velocity magnitude: 0.0934702
Time = 0.005

MULES: Solving for alpha1
Liquid phase volume fraction = 0.00275421  Min(alpha1) = -1.01972e-29  Max(alpha1) = 1
MULES: Solving for alpha1
Liquid phase volume fraction = 0.00275421  Min(alpha1) = -1.17465e-29  Max(alpha1) = 1
[1] Building level 0
[3] Building level 0
[2] Building level 0
[0] Building level 0
[0] Building level 1
[2] Building level 1
[1] Building level 1
[3] Building level 1
[0] Building level 2
Reconstruction on level 2
[1] Building level 2
[1] Building level 3
Creating AMGLevel 
[0] Building level 3
Reconstruction on level 3
[2] Building level 2
[3] Building level 2
[1] Building level 4
Creating AMGLevel 
[0] Building level 4
Reconstruction on level 4
[1] Building level 5
Creating AMGLevel 
[0] Building level 5
Reconstruction on level 5
[2] Building level 3
[1] Building level 6
[3] Building level 3
[1] Building level 7
Creating AMGLevel 
[0] Building level 6
Reconstruction on level 6
[1] Building level 8
[1] Building level 9
[1] Building level 10
[1] Building level 11
[1] Building level 12
Creating AMGLevel 
[1] Building level 13
[0] Building level 7
Reconstruction on level 7
[1] Building level 14
Creating AMGLevel 
[0] Building level 8
Reconstruction on level 8
Creating AMGLevel 
[0] Building level 9
Reconstruction on level 9
Creating AMGLevel 
[0] Building level 10
Reconstruction on level 10
Creating AMGLevel 
[0] Building level 11
Reconstruction on level 11
Creating AMGLevel 
[0] Building level 12
Reconstruction on level 12
Creating AMGLevel 
[0] Building level 13
Reconstruction on level 13
Creating AMGLevel 
[0] Building level 14
Reconstruction on level 14
Creating AMGLevel 
14 Level construction complete
[2] Building level 4
[3] Building level 4
[2] Building level 5
[3] Building level 5
[2] Building level 6
[3] Building level 6
[2] Building level 7
[3] Building level 7
[2] Building level 8
[3] Building level 8
[2] Building level 9
[2] Building level 10
[2] Building level 11
[3] Building level 9
[2] Building level 12
[2] Building level 13
[2] Building level 14
[3] Building level 10
[3] Building level 11
[3] Building level 12
[3] Building level 13
[3] Building level 14
initial dot_x = 114305
Iter #1 residual = 0.00124991
Iter #2 residual = 0.000667775
Iter #3 residual = 0.000381819
Iter #4 residual = 0.000233238
Iter #5 residual = 0.00016991
Iter #6 residual = 0.000138911
GPU: 6 iters: 2.0164 s: 1.94734 GB/s
GPUAMG:  Solving for pd, Initial residual = 0.00215876, Final residual = 8.03322e-05, No Iterations 6
[1] Building level 0
[3] Building level 0
[2] Building level 0
[0] Building level 0
[3] Building level 1
[1] Building level 1
[0] Building level 1
[2] Building level 1
[2] Building level 2
[0] Building level 2
[3] Building level 2
[1] Building level 2
[2] Building level 3
[0] Building level 3
[3] Building level 3
[1] Building level 3
[2] Building level 4
[0] Building level 4
[1] Building level 4
[3] Building level 4
[2] Building level 5
[1] Building level 5
[0] Building level 5
[3] Building level 5
[1] Building level 6
[2] Building level 6
[0] Building level 6
[3] Building level 6
[1] Building level 7
[2] Building level 7
[0] Building level 7
[1] Building level 8
[2] Building level 8
[3] Building level 7
[1] Building level 9
[0] Building level 8
[2] Building level 9
[1] Building level 10
[2] Building level 10
[1] Building level 11
[1] Building level 12
[1] Building level 13
[2] Building level 11
[0] Building level 9
[1] Building level 14
[2] Building level 12
[2] Building level 13
[3] Building level 8
[2] Building level 14
[0] Building level 10
[0] Building level 11
[0] Building level 12
[0] Building level 13
[0] Building level 14
14 Level construction complete
[3] Building level 9
[3] Building level 10
[3] Building level 11
[3] Building level 12
[3] Building level 13
[3] Building level 14
initial dot_x = 118462
Iter #1 residual = 0.00106315
Iter #2 residual = 0.000534921
Iter #3 residual = 0.000315774
Iter #4 residual = 0.000234068
Iter #5 residual = 0.000175027
Iter #6 residual = 0.00014542
Iter #7 residual = 0.000120059
GPU: 7 iters: 2.30184 s: 1.99017 GB/s
GPUAMG:  Solving for pd, Initial residual = 0.0017888, Final residual = 8.87118e-05, No Iterations 7
[0] Building level 0
[1] Building level 0
[3] Building level 0
[2] Building level 0
[2] Building level 1
[0] Building level 1
[3] Building level 1
[1] Building level 1
[2] Building level 2
[0] Building level 2
[3] Building level 2
[1] Building level 2
[2] Building level 3
[0] Building level 3
[3] Building level 3
[1] Building level 3
[0] Building level 4
[2] Building level 4
[1] Building level 4
[3] Building level 4
[0] Building level 5
[2] Building level 5
[1] Building level 5
[3] Building level 5
[0] Building level 6
[2] Building level 6
[1] Building level 6
[3] Building level 6
[0] Building level 7
[2] Building level 7
[1] Building level 7
[0] Building level 8
[2] Building level 8
[0] Building level 9
[2] Building level 9
[1] Building level 8
[0] Building level 10
[3] Building level 7
[0] Building level 11
[2] Building level 10
[0] Building level 12
[0] Building level 13
[0] Building level 14
14 Level construction complete
[2] Building level 11
[1] Building level 9
[2] Building level 12
[2] Building level 13
[2] Building level 14
[1] Building level 10
[1] Building level 11
[1] Building level 12
[1] Building level 13
[1] Building level 14
[3] Building level 8
[3] Building level 9
[3] Building level 10
[3] Building level 11
[3] Building level 12
[3] Building level 13
[3] Building level 14
initial dot_x = 115071
Iter #1 residual = 0.000583245
Iter #2 residual = 0.000371146
Iter #3 residual = 0.00020648
Iter #4 residual = 0.000153188
Iter #5 residual = 0.00012344
Iter #6 residual = 0.000108078
Iter #7 residual = 5.75267e-05
Iter #8 residual = 4.44543e-05
Iter #9 residual = 3.25502e-05
Iter #10 residual = 2.70932e-05
Iter #11 residual = 2.05782e-05
Iter #12 residual = 1.61897e-05
Iter #13 residual = 1.25676e-05
Iter #14 residual = 9.18077e-06
Iter #15 residual = 5.94419e-06
Iter #16 residual = 4.19756e-06
Iter #17 residual = 4.08678e-06
Iter #18 residual = 2.41714e-06
Iter #19 residual = 1.30658e-06
Iter #20 residual = 1.03463e-06
Iter #21 residual = 1.14053e-06
Iter #22 residual = 1.68388e-06
Iter #23 residual = 1.18148e-06
Iter #24 residual = 8.15586e-07
Iter #25 residual = 7.1427e-07
Iter #26 residual = 1.01758e-06
Iter #27 residual = 4.04614e-07
Iter #28 residual = 3.7876e-07
Iter #29 residual = 3.96202e-07
Iter #30 residual = 3.1572e-07
Iter #31 residual = 2.11984e-07
Iter #32 residual = 1.97387e-07
Iter #33 residual = 2.20651e-07
Iter #34 residual = 1.67782e-07
GPU: 34 iters: 10.0594 s: 2.21195 GB/s
GPUAMG:  Solving for pd, Initial residual = 0.00147099, Final residual = 7.22426e-08, No Iterations 34
time step continuity errors : sum local = 3.8288e-12, global = -3.4938e-24, cumulative = -4.32691e-24
ExecutionTime = 340.31 s  ClockTime = 360 s

Courant Number mean: 2.43941e-05 max: 0.00684035 velocity magnitude: 0.106881
Time = 0.006

MULES: Solving for alpha1
Liquid phase volume fraction = 0.00275421  Min(alpha1) = -7.76896e-32  Max(alpha1) = 1
MULES: Solving for alpha1
Liquid phase volume fraction = 0.00275421  Min(alpha1) = -6.99715e-30  Max(alpha1) = 1
[0] Building level 0
[2] Building level 0
[3] Building level 0
[1] Building level 0
[2] Building level 1
[1] Building level 1
[3] Building level 1
[0] Building level 1
[0] Building level 2
Reconstruction on level 2
[1] Building level 2
[1] Building level 3
Creating AMGLevel 
[0] Building level 3
Reconstruction on level 3
[2] Building level 2
[3] Building level 2
[1] Building level 4
Creating AMGLevel 
[0] Building level 4
Reconstruction on level 4
[1] Building level 5
Creating AMGLevel 
[0] Building level 5
Reconstruction on level 5
[2] Building level 3
[1] Building level 6
[3] Building level 3
Creating AMGLevel 
[1] Building level 7
[0] Building level 6
Reconstruction on level 6
[1] Building level 8
[1] Building level 9
[1] Building level 10
[1] Building level 11
[1] Building level 12
[1] Building level 13
[1] Building level 14
Creating AMGLevel 
[0] Building level 7
Reconstruction on level 7
Creating AMGLevel 
[0] Building level 8
Reconstruction on level 8
Creating AMGLevel 
[0] Building level 9
Reconstruction on level 9
Creating AMGLevel 
[0] Building level 10
Reconstruction on level 10
Creating AMGLevel 
[0] Building level 11
Reconstruction on level 11
Creating AMGLevel 
[0] Building level 12
Reconstruction on level 12
Creating AMGLevel 
[0] Building level 13
Reconstruction on level 13
Creating AMGLevel 
[0] Building level 14
Reconstruction on level 14
Creating AMGLevel 
14 Level construction complete
[2] Building level 4
[3] Building level 4
[2] Building level 5
[3] Building level 5
[2] Building level 6
[3] Building level 6
[2] Building level 7
[3] Building level 7
[2] Building level 8
[3] Building level 8
[2] Building level 9
[2] Building level 10
[2] Building level 11
[3] Building level 9
[2] Building level 12
[2] Building level 13
[2] Building level 14
[3] Building level 10
[3] Building level 11
[3] Building level 12
[3] Building level 13
[3] Building level 14
initial dot_x = 113754
Iter #1 residual = 0.00152847
Iter #2 residual = 0.000820452
Iter #3 residual = 0.000438494
Iter #4 residual = 0.000315223
Iter #5 residual = 0.000251497
Iter #6 residual = 0.000215567
Iter #7 residual = 0.000175633
Iter #8 residual = 0.000149355
Iter #9 residual = 0.000127759
GPU: 9 iters: 2.93101 s: 2.00952 GB/s
GPUAMG:  Solving for pd, Initial residual = 0.00228609, Final residual = 0.000113438, No Iterations 9
[1] Building level 0
[0] Building level 0
[2] Building level 0
[3] Building level 0
[3] Building level 1
[0] Building level 1
[1] Building level 1
[2] Building level 1
[3] Building level 2
[0] Building level 2
[2] Building level 2
[1] Building level 2
[3] Building level 3
[0] Building level 3
[2] Building level 3
[1] Building level 3
[3] Building level 4
[0] Building level 4
[2] Building level 4
[1] Building level 4
[3] Building level 5
[0] Building level 5
[2] Building level 5
[1] Building level 5
[3] Building level 6
[0] Building level 6
[3] Building level 7
[2] Building level 6
[1] Building level 6
[0] Building level 7
[3] Building level 8
[3] Building level 9
[3] Building level 10
[3] Building level 11
[0] Building level 8
[3] Building level 12
[2] Building level 7
[3] Building level 13
[3] Building level 14
[1] Building level 7
[0] Building level 9
[0] Building level 10
[0] Building level 11
[0] Building level 12
[0] Building level 13
[2] Building level 8
[0] Building level 14
14 Level construction complete
[1] Building level 8
[2] Building level 9
[1] Building level 9
[2] Building level 10
[2] Building level 11
[1] Building level 10
[2] Building level 12
[2] Building level 13
[2] Building level 14
[1] Building level 11
[1] Building level 12
[1] Building level 13
[1] Building level 14
initial dot_x = 124906
Iter #1 residual = 0.00132793
Iter #2 residual = 0.000711482
Iter #3 residual = 0.00053609
Iter #4 residual = 0.000405649
Iter #5 residual = 0.000328319
Iter #6 residual = 0.000269533
Iter #7 residual = 0.000242072
Iter #8 residual = 0.000191491
Iter #9 residual = 0.000162032
Iter #10 residual = 0.000137524
Iter #11 residual = 0.000101715
Iter #12 residual = 7.25681e-05
GPU: 12 iters: 3.82127 s: 2.05514 GB/s
GPUAMG:  Solving for pd, Initial residual = 0.00120212, Final residual = 4.57389e-05, No Iterations 12
[3] Building level 0
[1] Building level 0
[2] Building level 0
[0] Building level 0
[3] Building level 1
[2] Building level 1
[1] Building level 1
[0] Building level 1
[3] Building level 2
[0] Building level 2
[2] Building level 2
[1] Building level 2
[3] Building level 3
[0] Building level 3
[2] Building level 3
[1] Building level 3
[3] Building level 4
[0] Building level 4
[1] Building level 4
[2] Building level 4
[3] Building level 5
[0] Building level 5
[1] Building level 5
[2] Building level 5
[3] Building level 6
[0] Building level 6
[1] Building level 6
[2] Building level 6
[3] Building level 7
[0] Building level 7
[3] Building level 8
[3] Building level 9
[0] Building level 8
[1] Building level 7
[2] Building level 7
[3] Building level 10
[3] Building level 11
[3] Building level 12
[3] Building level 13
[3] Building level 14
[0] Building level 9
[0] Building level 10
[0] Building level 11
[0] Building level 12
[1] Building level 8
[0] Building level 13
[0] Building level 14
14 Level construction complete
[2] Building level 8
[1] Building level 9
[2] Building level 9
[1] Building level 10
[1] Building level 11
[2] Building level 10
[1] Building level 12
[2] Building level 11
[1] Building level 13
[1] Building level 14
[2] Building level 12
[2] Building level 13
[2] Building level 14
initial dot_x = 119215
Iter #1 residual = 0.000259117
Iter #2 residual = 0.000163081
Iter #3 residual = 0.000128998
Iter #4 residual = 0.000100238
Iter #5 residual = 8.46104e-05
Iter #6 residual = 6.25775e-05
Iter #7 residual = 3.85707e-05
Iter #8 residual = 2.53448e-05
Iter #9 residual = 1.66695e-05
Iter #10 residual = 1.08369e-05
Iter #11 residual = 8.42472e-06
Iter #12 residual = 8.2434e-06
Iter #13 residual = 5.84628e-06
Iter #14 residual = 5.01602e-06
Iter #15 residual = 3.96495e-06
Iter #16 residual = 2.91103e-06
Iter #17 residual = 2.0555e-06
Iter #18 residual = 1.46877e-06
Iter #19 residual = 1.22184e-06
Iter #20 residual = 9.82316e-07
Iter #21 residual = 9.14618e-07
Iter #22 residual = 7.16072e-07
Iter #23 residual = 6.40421e-07
Iter #24 residual = 5.53156e-07
Iter #25 residual = 5.06522e-07
Iter #26 residual = 3.86838e-07
Iter #27 residual = 2.80106e-07
Iter #28 residual = 2.08775e-07
Iter #29 residual = 1.56897e-07
GPU: 29 iters: 8.83231 s: 2.14878 GB/s
GPUAMG:  Solving for pd, Initial residual = 0.00072239, Final residual = 8.59269e-08, No Iterations 29
time step continuity errors : sum local = 4.02843e-12, global = -2.5756e-24, cumulative = -6.90251e-24
ExecutionTime = 405.43 s  ClockTime = 427 s

Courant Number mean: 2.95103e-05 max: 0.0076423 velocity magnitude: 0.119411
Time = 0.007

MULES: Solving for alpha1
Liquid phase volume fraction = 0.00275421  Min(alpha1) = -2.24213e-29  Max(alpha1) = 1
MULES: Solving for alpha1
Liquid phase volume fraction = 0.00275421  Min(alpha1) = -1.00481e-30  Max(alpha1) = 1
[0] Building level 0
[1] Building level 0
[2] Building level 0
[3] Building level 0
[2] Building level 1
[1] Building level 1
[0] Building level 1
[3] Building level 1
[0] Building level 2
Reconstruction on level 2
[2] Building level 2
[1] Building level 2
[1] Building level 3
Creating AMGLevel 
[2] Building level 3
[0] Building level 3
Reconstruction on level 3
[3] Building level 2
[1] Building level 4
[2] Building level 4
Creating AMGLevel 
[0] Building level 4
Reconstruction on level 4
[1] Building level 5
[2] Building level 5
Creating AMGLevel 
[0] Building level 5
Reconstruction on level 5
[3] Building level 3
[1] Building level 6
[2] Building level 6
Creating AMGLevel 
[0] Building level 6
Reconstruction on level 6
[1] Building level 7
[2] Building level 7
[1] Building level 8
[2] Building level 8
[1] Building level 9
[1] Building level 10
Creating AMGLevel 
[0] Building level 7
Reconstruction on level 7
[2] Building level 9
[1] Building level 11
[1] Building level 12
[1] Building level 13
[1] Building level 14
[2] Building level 10
[2] Building level 11
[2] Building level 12
[2] Building level 13
[2] Building level 14
Creating AMGLevel 
[0] Building level 8
Reconstruction on level 8
Creating AMGLevel 
[0] Building level 9
Reconstruction on level 9
Creating AMGLevel 
[0] Building level 10
Reconstruction on level 10
Creating AMGLevel 
[0] Building level 11
Reconstruction on level 11
Creating AMGLevel 
[0] Building level 12
Reconstruction on level 12
Creating AMGLevel 
[0] Building level 13
Reconstruction on level 13
Creating AMGLevel 
[0] Building level 14
Reconstruction on level 14
Creating AMGLevel 
14 Level construction complete
[3] Building level 4
[3] Building level 5
[3] Building level 6
[3] Building level 7
[3] Building level 8
[3] Building level 9
[3] Building level 10
[3] Building level 11
[3] Building level 12
[3] Building level 13
[3] Building level 14
initial dot_x = 113432
Iter #1 residual = 0.00147619
Iter #2 residual = 0.000782338
Iter #3 residual = 0.000448977
Iter #4 residual = 0.000275756
Iter #5 residual = 0.000170562
GPU: 5 iters: 1.68085 s: 1.94675 GB/s
GPUAMG:  Solving for pd, Initial residual = 0.00232427, Final residual = 0.000100628, No Iterations 5
[0] Building level 0
[1] Building level 0
[2] Building level 0
[3] Building level 0
[3] Building level 1
[0] Building level 1
[2] Building level 1
[1] Building level 1
[3] Building level 2
[0] Building level 2
[2] Building level 2
[1] Building level 2
[3] Building level 3
[0] Building level 3
[2] Building level 3
[1] Building level 3
[0] Building level 4
[3] Building level 4
[1] Building level 4
[2] Building level 4
[0] Building level 5
[3] Building level 5
[1] Building level 5
[2] Building level 5
[0] Building level 6
[3] Building level 6
[0] Building level 7
[1] Building level 6
[0] Building level 8
[2] Building level 6
[3] Building level 7
[0] Building level 9
[0] Building level 10
[0] Building level 11
[0] Building level 12
[0] Building level 13
[0] Building level 14
14 Level construction complete
[3] Building level 8
[1] Building level 7
[3] Building level 9
[3] Building level 10
[2] Building level 7
[3] Building level 11
[3] Building level 12
[1] Building level 8
[3] Building level 13
[3] Building level 14
[1] Building level 9
[1] Building level 10
[2] Building level 8
[1] Building level 11
[1] Building level 12
[1] Building level 13
[1] Building level 14
[2] Building level 9
[2] Building level 10
[2] Building level 11
[2] Building level 12
[2] Building level 13
[2] Building level 14
initial dot_x = 119042
Iter #1 residual = 0.00128177
Iter #2 residual = 0.000636036
Iter #3 residual = 0.000366774
Iter #4 residual = 0.000276559
Iter #5 residual = 0.000215323
Iter #6 residual = 0.000167456
Iter #7 residual = 0.000129479
Iter #8 residual = 0.000101382
Iter #9 residual = 8.10739e-05
Iter #10 residual = 6.60355e-05
GPU: 10 iters: 3.07934 s: 2.12525 GB/s
GPUAMG:  Solving for pd, Initial residual = 0.00110395, Final residual = 5.35372e-05, No Iterations 10
[0] Building level 0
[2] Building level 0
[3] Building level 0
[1] Building level 0
[2] Building level 1
[3] Building level 1
[0] Building level 1
[1] Building level 1
[3] Building level 2
[0] Building level 2
[2] Building level 2
[1] Building level 2
[3] Building level 3
[0] Building level 3
[2] Building level 3
[1] Building level 3
[0] Building level 4
[3] Building level 4
[1] Building level 4
[2] Building level 4
[0] Building level 5
[3] Building level 5
[1] Building level 5
[2] Building level 5
[0] Building level 6
[3] Building level 6
[0] Building level 7
[1] Building level 6
[0] Building level 8
[2] Building level 6
[0] Building level 9
[3] Building level 7
[0] Building level 10
[0] Building level 11
[0] Building level 12
[0] Building level 13
[0] Building level 14
14 Level construction complete
[3] Building level 8
[1] Building level 7
[3] Building level 9
[3] Building level 10
[2] Building level 7
[3] Building level 11
[3] Building level 12
[3] Building level 13
[3] Building level 14
[1] Building level 8
[1] Building level 9
[2] Building level 8
[1] Building level 10
[1] Building level 11
[1] Building level 12
[1] Building level 13
[1] Building level 14
[2] Building level 9
[2] Building level 10
[2] Building level 11
[2] Building level 12
[2] Building level 13
[2] Building level 14
initial dot_x = 114969
Iter #1 residual = 0.000221222
Iter #2 residual = 0.000129983
Iter #3 residual = 9.78354e-05
Iter #4 residual = 7.62084e-05
Iter #5 residual = 6.12156e-05
Iter #6 residual = 4.94882e-05
Iter #7 residual = 4.06203e-05
Iter #8 residual = 3.36894e-05
Iter #9 residual = 2.77584e-05
Iter #10 residual = 1.94718e-05
Iter #11 residual = 1.45051e-05
Iter #12 residual = 9.52372e-06
Iter #13 residual = 6.14022e-06
Iter #14 residual = 4.50343e-06
Iter #15 residual = 3.35797e-06
Iter #16 residual = 2.68895e-06
Iter #17 residual = 2.14534e-06
Iter #18 residual = 1.48135e-06
Iter #19 residual = 9.13189e-07
Iter #20 residual = 5.62097e-07
Iter #21 residual = 3.5327e-07
Iter #22 residual = 2.53098e-07
Iter #23 residual = 1.60575e-07
Iter #24 residual = 1.22936e-07
GPU: 24 iters: 6.99911 s: 2.24407 GB/s
GPUAMG:  Solving for pd, Initial residual = 0.000564612, Final residual = 7.80601e-08, No Iterations 24
time step continuity errors : sum local = 3.64202e-12, global = 2.87935e-24, cumulative = -4.02317e-24
ExecutionTime = 467.43 s  ClockTime = 491 s

Courant Number mean: 3.46312e-05 max: 0.00834953 velocity magnitude: 0.130461
Time = 0.008

MULES: Solving for alpha1
Liquid phase volume fraction = 0.00275421  Min(alpha1) = -2.43837e-30  Max(alpha1) = 1
MULES: Solving for alpha1
Liquid phase volume fraction = 0.00275421  Min(alpha1) = -2.82057e-30  Max(alpha1) = 1
[1] Building level 0
[2] Building level 0
[3] Building level 0
[0] Building level 0
[2] Building level 1
[0] Building level 1
[3] Building level 1
[1] Building level 1
[0] Building level 2
Reconstruction on level 2
[2] Building level 2
[1] Building level 2
[1] Building level 3
Creating AMGLevel 
[2] Building level 3
[0] Building level 3
Reconstruction on level 3
[3] Building level 2
[1] Building level 4
Creating AMGLevel 
[2] Building level 4
[0] Building level 4
Reconstruction on level 4
[1] Building level 5
[2] Building level 5
Creating AMGLevel 
[0] Building level 5
Reconstruction on level 5
[1] Building level 6
[3] Building level 3
[2] Building level 6
Creating AMGLevel 
[0] Building level 6
Reconstruction on level 6
[1] Building level 7
[2] Building level 7
[1] Building level 8
[1] Building level 9
[2] Building level 8
[1] Building level 10
Creating AMGLevel 
[1] Building level 11
[0] Building level 7
Reconstruction on level 7
[2] Building level 9
[1] Building level 12
[1] Building level 13
[1] Building level 14
[2] Building level 10
[2] Building level 11
[2] Building level 12
[2] Building level 13
[2] Building level 14
Creating AMGLevel 
[0] Building level 8
Reconstruction on level 8
Creating AMGLevel 
[0] Building level 9
Reconstruction on level 9
Creating AMGLevel 
[0] Building level 10
Reconstruction on level 10
Creating AMGLevel 
[0] Building level 11
Reconstruction on level 11
Creating AMGLevel 
[0] Building level 12
Reconstruction on level 12
Creating AMGLevel 
[0] Building level 13
Reconstruction on level 13
Creating AMGLevel 
[0] Building level 14
Reconstruction on level 14
Creating AMGLevel 
14 Level construction complete
[3] Building level 4
[3] Building level 5
[3] Building level 6
[3] Building level 7
[3] Building level 8
[3] Building level 9
[3] Building level 10
[3] Building level 11
[3] Building level 12
[3] Building level 13
[3] Building level 14
initial dot_x = 113905
Iter #1 residual = 0.00139304
Iter #2 residual = 0.000754085
Iter #3 residual = 0.000434142
Iter #4 residual = 0.00026487
Iter #5 residual = 0.000163264
GPU: 5 iters: 1.69699 s: 1.92823 GB/s
GPUAMG:  Solving for pd, Initial residual = 0.00236544, Final residual = 0.000100492, No Iterations 5
[1] Building level 0
[0] Building level 0
[2] Building level 0
[3] Building level 0
[0] Building level 1
[2] Building level 1
[1] Building level 1
[3] Building level 1
[0] Building level 2
[1] Building level 2
[2] Building level 2
[3] Building level 2
[0] Building level 3
[1] Building level 3
[3] Building level 3
[2] Building level 3
[0] Building level 4
[1] Building level 4
[3] Building level 4
[2] Building level 4
[0] Building level 5
[1] Building level 5
[3] Building level 5
[2] Building level 5
[0] Building level 6
[1] Building level 6
[3] Building level 6
[0] Building level 7
[2] Building level 6
[1] Building level 7
[0] Building level 8
[3] Building level 7
[0] Building level 9
[1] Building level 8
[0] Building level 10
[0] Building level 11
[0] Building level 12
[0] Building level 13
[0] Building level 14
14 Level construction complete
[1] Building level 9
[2] Building level 7
[3] Building level 8
[1] Building level 10
[1] Building level 11
[1] Building level 12
[1] Building level 13
[1] Building level 14
[3] Building level 9
[3] Building level 10
[2] Building level 8
[3] Building level 11
[3] Building level 12
[3] Building level 13
[3] Building level 14
[2] Building level 9
[2] Building level 10
[2] Building level 11
[2] Building level 12
[2] Building level 13
[2] Building level 14
initial dot_x = 118745
Iter #1 residual = 0.001199
Iter #2 residual = 0.000630426
Iter #3 residual = 0.000359569
Iter #4 residual = 0.000216295
Iter #5 residual = 0.000131262
Iter #6 residual = 8.11095e-05
GPU: 6 iters: 1.96838 s: 1.99486 GB/s
GPUAMG:  Solving for pd, Initial residual = 0.0010748, Final residual = 5.02561e-05, No Iterations 6
[0] Building level 0
[1] Building level 0
[2] Building level 0
[3] Building level 0
[2] Building level 1
[1] Building level 1
[0] Building level 1
[3] Building level 1
[0] Building level 2
[1] Building level 2
[2] Building level 2
[3] Building level 2
[0] Building level 3
[1] Building level 3
[3] Building level 3
[2] Building level 3
[0] Building level 4
[1] Building level 4
[3] Building level 4
[2] Building level 4
[0] Building level 5
[1] Building level 5
[3] Building level 5
[2] Building level 5
[0] Building level 6
[1] Building level 6
[3] Building level 6
[0] Building level 7
[2] Building level 6
[1] Building level 7
[0] Building level 8
[3] Building level 7
[0] Building level 9
[1] Building level 8
[0] Building level 10
[0] Building level 11
[0] Building level 12
[0] Building level 13
[0] Building level 14
[2] Building level 7
14 Level construction complete
[1] Building level 9
[3] Building level 8
[1] Building level 10
[1] Building level 11
[1] Building level 12
[1] Building level 13
[1] Building level 14
[3] Building level 9
[2] Building level 8
[3] Building level 10
[3] Building level 11
[3] Building level 12
[3] Building level 13
[3] Building level 14
[2] Building level 9
[2] Building level 10
[2] Building level 11
[2] Building level 12
[2] Building level 13
[2] Building level 14
initial dot_x = 115058
Iter #1 residual = 0.000166537
Iter #2 residual = 9.86712e-05
Iter #3 residual = 5.9289e-05
Iter #4 residual = 3.65695e-05
Iter #5 residual = 2.40807e-05
Iter #6 residual = 1.66834e-05
Iter #7 residual = 1.31084e-05
Iter #8 residual = 8.64793e-06
Iter #9 residual = 5.72319e-06
Iter #10 residual = 3.77405e-06
Iter #11 residual = 2.96485e-06
Iter #12 residual = 2.36317e-06
Iter #13 residual = 1.55425e-06
Iter #14 residual = 9.85223e-07
Iter #15 residual = 8.01291e-07
Iter #16 residual = 6.57313e-07
Iter #17 residual = 4.68171e-07
Iter #18 residual = 3.17685e-07
Iter #19 residual = 2.57242e-07
Iter #20 residual = 3.47901e-07
Iter #21 residual = 1.73166e-07
Iter #22 residual = 1.43125e-07
Iter #23 residual = 2.3417e-07
Iter #24 residual = 1.66815e-07
Iter #25 residual = 1.52213e-07
GPU: 25 iters: 7.33171 s: 2.23153 GB/s
GPUAMG:  Solving for pd, Initial residual = 0.000469098, Final residual = 7.31629e-08, No Iterations 25
time step continuity errors : sum local = 3.58449e-12, global = 2.92891e-24, cumulative = -1.09426e-24
ExecutionTime = 529.09 s  ClockTime = 555 s

Courant Number mean: 3.97663e-05 max: 0.00903211 velocity magnitude: 0.140375
Time = 0.009

MULES: Solving for alpha1
Liquid phase volume fraction = 0.00275421  Min(alpha1) = -4.73869e-30  Max(alpha1) = 1
MULES: Solving for alpha1
Liquid phase volume fraction = 0.00275421  Min(alpha1) = -8.56818e-30  Max(alpha1) = 1
[3] Building level 0
[1] Building level 0
[2] Building level 0
[0] Building level 0
[2] Building level 1
[1] Building level 1
[0] Building level 1
[3] Building level 1
[0] Building level 2
Reconstruction on level 2
[2] Building level 2
Creating AMGLevel 
[2] Building level 3
[0] Building level 3
Reconstruction on level 3
[1] Building level 2
[3] Building level 2
[2] Building level 4
Creating AMGLevel 
[0] Building level 4
Reconstruction on level 4
[2] Building level 5
Creating AMGLevel 
[0] Building level 5
Reconstruction on level 5
[1] Building level 3
[3] Building level 3
[2] Building level 6
Creating AMGLevel 
[0] Building level 6
Reconstruction on level 6
[2] Building level 7
[2] Building level 8
Creating AMGLevel 
[2] Building level 9
[0] Building level 7
Reconstruction on level 7
[2] Building level 10
[2] Building level 11
[2] Building level 12
[2] Building level 13
[2] Building level 14
Creating AMGLevel 
[0] Building level 8
Reconstruction on level 8
Creating AMGLevel 
[0] Building level 9
Reconstruction on level 9
Creating AMGLevel 
[0] Building level 10
Reconstruction on level 10
Creating AMGLevel 
[0] Building level 11
Reconstruction on level 11
Creating AMGLevel 
[0] Building level 12
Reconstruction on level 12
Creating AMGLevel 
[0] Building level 13
Reconstruction on level 13
Creating AMGLevel 
[0] Building level 14
Reconstruction on level 14
Creating AMGLevel 
14 Level construction complete
[1] Building level 4
[3] Building level 4
[1] Building level 5
[3] Building level 5
[1] Building level 6
[3] Building level 6
[1] Building level 7
[1] Building level 8
[3] Building level 7
[1] Building level 9
[1] Building level 10
[3] Building level 8
[1] Building level 11
[1] Building level 12
[1] Building level 13
[1] Building level 14
[3] Building level 9
[3] Building level 10
[3] Building level 11
[3] Building level 12
[3] Building level 13
[3] Building level 14
initial dot_x = 113780
Iter #1 residual = 0.00145446
Iter #2 residual = 0.000789903
Iter #3 residual = 0.00044914
Iter #4 residual = 0.000277392
Iter #5 residual = 0.000169119
GPU: 5 iters: 1.68711 s: 1.93952 GB/s
GPUAMG:  Solving for pd, Initial residual = 0.00242299, Final residual = 0.000107276, No Iterations 5
[0] Building level 0
[1] Building level 0
[2] Building level 0
[3] Building level 0
[3] Building level 1
[0] Building level 1
[2] Building level 1
[1] Building level 1
[3] Building level 2
[0] Building level 2
[1] Building level 2
[2] Building level 2
[0] Building level 3
[3] Building level 3
[1] Building level 3
[2] Building level 3
[0] Building level 4
[3] Building level 4
[1] Building level 4
[2] Building level 4
[3] Building level 5
[0] Building level 5
[1] Building level 5
[2] Building level 5
[0] Building level 6
[3] Building level 6
[1] Building level 6
[0] Building level 7
[3] Building level 7
[1] Building level 7
[0] Building level 8
[2] Building level 6
[0] Building level 9
[3] Building level 8
[1] Building level 8
[0] Building level 10
[0] Building level 11
[0] Building level 12
[3] Building level 9
[0] Building level 13
[0] Building level 14
14 Level construction complete
[1] Building level 9
[3] Building level 10
[3] Building level 11
[3] Building level 12
[1] Building level 10
[3] Building level 13
[3] Building level 14
[1] Building level 11
[1] Building level 12
[1] Building level 13
[1] Building level 14
[2] Building level 7
[2] Building level 8
[2] Building level 9
[2] Building level 10
[2] Building level 11
[2] Building level 12
[2] Building level 13
[2] Building level 14
initial dot_x = 120004
Iter #1 residual = 0.00125524
Iter #2 residual = 0.0006581
Iter #3 residual = 0.000369458
Iter #4 residual = 0.000224039
Iter #5 residual = 0.00013579
Iter #6 residual = 8.53015e-05
Iter #7 residual = 5.32361e-05
GPU: 7 iters: 2.23385 s: 2.05075 GB/s
GPUAMG:  Solving for pd, Initial residual = 0.00103498, Final residual = 3.38643e-05, No Iterations 7
[3] Building level 0
[2] Building level 0
[1] Building level 0
[0] Building level 0
[1] Building level 1
[3] Building level 1
[2] Building level 1
[0] Building level 1
[3] Building level 2
[0] Building level 2
[1] Building level 2
[2] Building level 2
[0] Building level 3
[3] Building level 3
[1] Building level 3
[2] Building level 3
[0] Building level 4
[3] Building level 4
[1] Building level 4
[2] Building level 4
[0] Building level 5
[3] Building level 5
[1] Building level 5
[2] Building level 5
[0] Building level 6
[3] Building level 6
[1] Building level 6
[0] Building level 7
[3] Building level 7
[1] Building level 7
[0] Building level 8
[2] Building level 6
[0] Building level 9
[3] Building level 8
[0] Building level 10
[1] Building level 8
[0] Building level 11
[0] Building level 12
[3] Building level 9
[0] Building level 13
[0] Building level 14
14 Level construction complete
[3] Building level 10
[1] Building level 9
[3] Building level 11
[3] Building level 12
[3] Building level 13
[3] Building level 14
[1] Building level 10
[1] Building level 11
[1] Building level 12
[1] Building level 13
[1] Building level 14
[2] Building level 7
[2] Building level 8
[2] Building level 9
[2] Building level 10
[2] Building level 11
[2] Building level 12
[2] Building level 13
[2] Building level 14
initial dot_x = 114361
Iter #1 residual = 0.000161182
Iter #2 residual = 9.93573e-05
Iter #3 residual = 5.98104e-05
Iter #4 residual = 3.79038e-05
Iter #5 residual = 2.37908e-05
Iter #6 residual = 1.51893e-05
Iter #7 residual = 9.56409e-06
Iter #8 residual = 5.99535e-06
Iter #9 residual = 3.7683e-06
Iter #10 residual = 2.41663e-06
Iter #11 residual = 1.62696e-06
Iter #12 residual = 1.11134e-06
Iter #13 residual = 7.89671e-07
Iter #14 residual = 5.61158e-07
Iter #15 residual = 4.20307e-07
Iter #16 residual = 3.05129e-07
Iter #17 residual = 2.37395e-07
Iter #18 residual = 1.68762e-07
Iter #19 residual = 1.35517e-07
Iter #20 residual = 1.03449e-07
GPU: 20 iters: 5.89927 s: 2.21871 GB/s
GPUAMG:  Solving for pd, Initial residual = 0.000385805, Final residual = 7.91618e-08, No Iterations 20
time step continuity errors : sum local = 3.64406e-12, global = -1.79347e-24, cumulative = -2.88772e-24
ExecutionTime = 589.84 s  ClockTime = 618 s

Courant Number mean: 4.4921e-05 max: 0.00971307 velocity magnitude: 0.149371
Time = 0.01

MULES: Solving for alpha1
Liquid phase volume fraction = 0.00275421  Min(alpha1) = -1.94624e-29  Max(alpha1) = 1
MULES: Solving for alpha1
Liquid phase volume fraction = 0.00275421  Min(alpha1) = -2.82563e-29  Max(alpha1) = 1
[3] Building level 0
[1] Building level 0
[2] Building level 0
[0] Building level 0
[1] Building level 1
[2] Building level 1
[0] Building level 1
Reconstruction on level 1
[3] Building level 1
[2] Building level 2
[2] Building level 3
[1] Building level 2
[3] Building level 2
Creating AMGLevel 
[0] Building level 2
Reconstruction on level 2
[2] Building level 4
[2] Building level 5
[1] Building level 3
[3] Building level 3
[2] Building level 6
Creating AMGLevel 
[0] Building level 3
Reconstruction on level 3
[2] Building level 7
[2] Building level 8
[2] Building level 9
[2] Building level 10
[2] Building level 11
[2] Building level 12
[2] Building level 13
[2] Building level 14
[1] Building level 4
[3] Building level 4
Creating AMGLevel 
[0] Building level 4
Reconstruction on level 4
[1] Building level 5
[3] Building level 5
Creating AMGLevel 
[1] Building level 6
[0] Building level 5
Reconstruction on level 5
[1] Building level 7
[3] Building level 6
[1] Building level 8
[1] Building level 9
Creating AMGLevel 
[0] Building level 6
Reconstruction on level 6
[1] Building level 10
[1] Building level 11
[1] Building level 12
[3] Building level 7
[1] Building level 13
[1] Building level 14
[3] Building level 8
Creating AMGLevel 
[0] Building level 7
Reconstruction on level 7
[3] Building level 9
[3] Building level 10
[3] Building level 11
[3] Building level 12
[3] Building level 13
[3] Building level 14
Creating AMGLevel 
[0] Building level 8
Reconstruction on level 8
Creating AMGLevel 
[0] Building level 9
Reconstruction on level 9
Creating AMGLevel 
[0] Building level 10
Reconstruction on level 10
Creating AMGLevel 
[0] Building level 11
Reconstruction on level 11
Creating AMGLevel 
[0] Building level 12
Reconstruction on level 12
Creating AMGLevel 
[0] Building level 13
Reconstruction on level 13
Creating AMGLevel 
[0] Building level 14
Reconstruction on level 14
Creating AMGLevel 
14 Level construction complete
initial dot_x = 113847
Iter #1 residual = 0.00144991
Iter #2 residual = 0.000775124
Iter #3 residual = 0.000434303
Iter #4 residual = 0.000265497
Iter #5 residual = 0.000164758
GPU: 5 iters: 1.72927 s: 1.89224 GB/s
GPUAMG:  Solving for pd, Initial residual = 0.00258338, Final residual = 0.000103499, No Iterations 5
[1] Building level 0
[0] Building level 0
[3] Building level 0
[2] Building level 0
[3] Building level 1
[2] Building level 1
[0] Building level 1
[1] Building level 1
[3] Building level 2
[0] Building level 2
[2] Building level 2
[1] Building level 2
[3] Building level 3
[0] Building level 3
[2] Building level 3
[1] Building level 3
[0] Building level 4
[3] Building level 4
[2] Building level 4
[1] Building level 4
[0] Building level 5
[3] Building level 5
[2] Building level 5
[1] Building level 5
[0] Building level 6
[3] Building level 6
[2] Building level 6
[1] Building level 6
[0] Building level 7
[3] Building level 7
[2] Building level 7
[1] Building level 7
[0] Building level 8
[3] Building level 8
[1] Building level 8
[0] Building level 9
[2] Building level 8
[3] Building level 9
[0] Building level 10
[0] Building level 11
[3] Building level 10
[0] Building level 12
[1] Building level 9
[0] Building level 13
[0] Building level 14
[2] Building level 9
14 Level construction complete
[3] Building level 11
[3] Building level 12
[3] Building level 13
[3] Building level 14
[1] Building level 10
[2] Building level 10
[1] Building level 11
[1] Building level 12
[2] Building level 11
[1] Building level 13
[1] Building level 14
[2] Building level 12
[2] Building level 13
[2] Building level 14
initial dot_x = 120114
Iter #1 residual = 0.00127952
Iter #2 residual = 0.000645627
Iter #3 residual = 0.000380039
Iter #4 residual = 0.000277291
Iter #5 residual = 0.000157164
Iter #6 residual = 0.000101454
Iter #7 residual = 8.36586e-05
GPU: 7 iters: 2.28032 s: 2.00895 GB/s
GPUAMG:  Solving for pd, Initial residual = 0.00101149, Final residual = 4.56164e-05, No Iterations 7
[1] Building level 0
[2] Building level 0
[3] Building level 0
[0] Building level 0
[2] Building level 1
[3] Building level 1
[0] Building level 1
[1] Building level 1
[0] Building level 2
[3] Building level 2
[2] Building level 2
[1] Building level 2
[0] Building level 3
[3] Building level 3
[2] Building level 3
[1] Building level 3
[0] Building level 4
[3] Building level 4
[2] Building level 4
[1] Building level 4
[0] Building level 5
[3] Building level 5
[1] Building level 5
[2] Building level 5
[0] Building level 6
[3] Building level 6
[1] Building level 6
[2] Building level 6
[0] Building level 7
[1] Building level 7
[3] Building level 7
[2] Building level 7
[0] Building level 8
[1] Building level 8
[3] Building level 8
[0] Building level 9
[1] Building level 9
[3] Building level 9
[2] Building level 8
[0] Building level 10
[1] Building level 10
[0] Building level 11
[0] Building level 12
[3] Building level 10
[0] Building level 13
[1] Building level 11
[0] Building level 14
14 Level construction complete
[1] Building level 12
[3] Building level 11
[1] Building level 13
[1] Building level 14
[3] Building level 12
[3] Building level 13
[3] Building level 14
[2] Building level 9
[2] Building level 10
[2] Building level 11
[2] Building level 12
[2] Building level 13
[2] Building level 14
initial dot_x = 114742
Iter #1 residual = 0.000169005
Iter #2 residual = 0.000104626
Iter #3 residual = 6.70386e-05
Iter #4 residual = 4.15401e-05
Iter #5 residual = 2.74702e-05
Iter #6 residual = 2.07076e-05
Iter #7 residual = 1.35973e-05
Iter #8 residual = 1.0514e-05
Iter #9 residual = 8.58553e-06
Iter #10 residual = 6.36446e-06
Iter #11 residual = 5.57993e-06
Iter #12 residual = 3.94071e-06
Iter #13 residual = 5.08439e-06
Iter #14 residual = 2.04342e-06
Iter #15 residual = 1.85512e-06
Iter #16 residual = 6.39938e-07
Iter #17 residual = 4.2348e-07
Iter #18 residual = 2.93968e-07
Iter #19 residual = 2.28379e-07
Iter #20 residual = 1.92023e-07
Iter #21 residual = 1.43953e-07
Iter #22 residual = 2.07689e-07
GPU: 22 iters: 6.60308 s: 2.18044 GB/s
GPUAMG:  Solving for pd, Initial residual = 0.000349701, Final residual = 8.5307e-08, No Iterations 22
time step continuity errors : sum local = 3.94114e-12, global = -3.47142e-24, cumulative = -6.35914e-24
ExecutionTime = 652.31 s  ClockTime = 682 s

End

Finalising parallel run
