 Data for JOB [46219,1] offset 0

 ========================   JOB MAP   ========================

 Data for node: ivb124	Num slots: 6	Max slots: 0	Num procs: 6
 	Process OMPI jobid: [46219,1] App: 0 Process rank: 0
 	Process OMPI jobid: [46219,1] App: 0 Process rank: 1
 	Process OMPI jobid: [46219,1] App: 0 Process rank: 2
 	Process OMPI jobid: [46219,1] App: 0 Process rank: 3
 	Process OMPI jobid: [46219,1] App: 0 Process rank: 4
 	Process OMPI jobid: [46219,1] App: 0 Process rank: 5

 =============================================================
[ivb124:24489] MCW rank 3 bound to socket 0[core 3[hwt 0]]: [./././B/./././././.][./././././././././.]
[ivb124:24489] MCW rank 4 bound to socket 0[core 4[hwt 0]]: [././././B/././././.][./././././././././.]
[ivb124:24489] MCW rank 5 bound to socket 0[core 5[hwt 0]]: [./././././B/./././.][./././././././././.]
[ivb124:24489] MCW rank 0 bound to socket 0[core 0[hwt 0]]: [B/././././././././.][./././././././././.]
[ivb124:24489] MCW rank 1 bound to socket 0[core 1[hwt 0]]: [./B/./././././././.][./././././././././.]
[ivb124:24489] MCW rank 2 bound to socket 0[core 2[hwt 0]]: [././B/././././././.][./././././././././.]
1
0
2
3
4
5
/*---------------------------------------------------------------------------*\
| =========                 |                                                 |
| \\      /  F ield         | foam-extend: Open Source CFD                    |
|  \\    /   O peration     | Version:     3.1                                |
|   \\  /    A nd           | Web:         http://www.extend-project.de       |
|    \\/     M anipulation  |                                                 |
\*---------------------------------------------------------------------------*/
Build    : 3.1-e2da948002a2
Exec     : interFoam -parallel
Date     : May 25 2016
Time     : 19:09:59
Host     : ivb124
PID      : 24533
CtrlDict : /home-2/vplatonov/foam/foam-extend-3.1/etc/controlDict
Case     : /home/vplatonov/tests/rt12mln
nProcs   : 6
Slaves : 
5
(
ivb124.24531
ivb124.24550
ivb124.24538
ivb124.24544
ivb124.24555
)

Pstream initialized with:
    floatTransfer     : 0
    nProcsSimpleSum   : 0
    commsType         : blocking
SigFpe   : Enabling floating point exception trapping (FOAM_SIGFPE).

// * * * * * * * * * * * * * * * * * * * * * * * * * * * * * * * * * * * * * //
Create time

Create mesh for time = 0


Reading g
Reading field pd

Reading field alpha1

Reading field U

Reading/calculating face flux field phi

Reading transportProperties

Selecting incompressible transport model Newtonian
Selecting incompressible transport model Newtonian
Calculating field g.h

Selecting turbulence model type laminar
time step continuity errors : sum local = 0, global = 0, cumulative = 0
Created persistent data with name pcorr
GPUAMG:  Solving for pcorr, Initial residual = 0, Final residual = 0, No Iterations 0
time step continuity errors : sum local = 0, global = 0, cumulative = 0
Courant Number mean: 0 max: 0 velocity magnitude: 0

Starting time loop

Courant Number mean: 0 max: 0 velocity magnitude: 0
Time = 0.001

MULES: Solving for alpha1
Liquid phase volume fraction = 0.00275421  Min(alpha1) = 0  Max(alpha1) = 1
MULES: Solving for alpha1
Liquid phase volume fraction = 0.00275421  Min(alpha1) = 0  Max(alpha1) = 1
Created persistent data with name pd
[3] Building level 0
[4] Building level 0
[5] Building level 0
[0] Building level 0
[1] Building level 0
[2] Building level 0
Creating AMGLevel 
[2] Building level 1
[4] Building level 1
[0] Building level 1
[3] Building level 1
[1] Building level 1
[5] Building level 1
[2] Building level 2
Creating AMGLevel 
[4] Building level 2
[0] Building level 2
[3] Building level 2
[1] Building level 2
[5] Building level 2
[2] Building level 3
Creating AMGLevel 
[3] Building level 3
[4] Building level 3
[0] Building level 3
[1] Building level 3
[5] Building level 3
[2] Building level 4
Creating AMGLevel 
[0] Building level 4
[3] Building level 4
[4] Building level 4
[1] Building level 4
[5] Building level 4
[2] Building level 5
Creating AMGLevel 
[0] Building level 5
[4] Building level 5
[3] Building level 5
[1] Building level 5
[5] Building level 5
[2] Building level 6
Creating AMGLevel 
[0] Building level 6
[4] Building level 6
[3] Building level 6
[1] Building level 6
[5] Building level 6
[2] Building level 7
Creating AMGLevel 
[0] Building level 7
[4] Building level 7
[3] Building level 7
[1] Building level 7
[2] Building level 8
Creating AMGLevel 
[0] Building level 8
[5] Building level 7
[2] Building level 9
[4] Building level 8
[3] Building level 8
[1] Building level 8
[2] Building level 10
Creating AMGLevel 
[0] Building level 9
[2] Building level 11
[4] Building level 9
[3] Building level 9
[2] Building level 12
[2] Building level 13
[1] Building level 9
Creating AMGLevel 
[0] Building level 10
[2] Building level 14
[5] Building level 8
[4] Building level 10
[3] Building level 10
Creating AMGLevel 
[0] Building level 11
Creating AMGLevel 
[0] Building level 12
[1] Building level 10
Creating AMGLevel 
[0] Building level 13
[4] Building level 11
[3] Building level 11
[1] Building level 11
Creating AMGLevel 
[0] Building level 14
[4] Building level 12
Creating AMGLevel 
14 Level construction complete
[3] Building level 12
[1] Building level 12
[5] Building level 9
[4] Building level 13
[3] Building level 13
[1] Building level 13
[4] Building level 14
[3] Building level 14
[1] Building level 14
[5] Building level 10
[5] Building level 11
[5] Building level 12
[5] Building level 13
[5] Building level 14
initial dot_x = 0
Iter #1 residual = 0.0735088
GPU: 1 iters: 0.43083 s: 1.0127 GB/s
GPUAMG:  Solving for pd, Initial residual = 1, Final residual = 0.0272231, No Iterations 1
[5] Building level 0
[1] Building level 0
[0] Building level 0
[3] Building level 0
[2] Building level 0
[4] Building level 0
[4] Building level 1
[5] Building level 1
[1] Building level 1
[3] Building level 1
[2] Building level 1
[0] Building level 1
[1] Building level 2
[5] Building level 2
[4] Building level 2
[2] Building level 2
[3] Building level 2
[0] Building level 2
[1] Building level 3
[2] Building level 3
[5] Building level 3
[4] Building level 3
[3] Building level 3
[0] Building level 3
[1] Building level 4
[2] Building level 4
[5] Building level 4
[3] Building level 4
[4] Building level 4
[0] Building level 4
[2] Building level 5
[1] Building level 5
[5] Building level 5
[3] Building level 5
[4] Building level 5
[1] Building level 6
[2] Building level 6
[5] Building level 6
[0] Building level 5
[3] Building level 6
[2] Building level 7
[1] Building level 7
[4] Building level 6
[1] Building level 8
[2] Building level 8
[5] Building level 7
[2] Building level 9
[1] Building level 9
[1] Building level 10
[2] Building level 10
[3] Building level 7
[1] Building level 11
[5] Building level 8
[2] Building level 11
[1] Building level 12
[2] Building level 12
[1] Building level 13
[2] Building level 13
[1] Building level 14
[2] Building level 14
[4] Building level 7
[5] Building level 9
[5] Building level 10
[3] Building level 8
[5] Building level 11
[5] Building level 12
[5] Building level 13
[5] Building level 14
[4] Building level 8
[0] Building level 6
[3] Building level 9
[3] Building level 10
[4] Building level 9
[3] Building level 11
[3] Building level 12
[3] Building level 13
[3] Building level 14
[4] Building level 10
[4] Building level 11
[4] Building level 12
[4] Building level 13
[4] Building level 14
[0] Building level 7
[0] Building level 8
[0] Building level 9
[0] Building level 10
[0] Building level 11
[0] Building level 12
[0] Building level 13
[0] Building level 14
14 Level construction complete
initial dot_x = 75889.3
Iter #1 residual = 0.00835044
Iter #2 residual = 0.00430563
Iter #3 residual = 0.00228551
Iter #4 residual = 0.00122377
GPU: 4 iters: 1.06421 s: 1.63991 GB/s
GPUAMG:  Solving for pd, Initial residual = 0.0195871, Final residual = 0.000647023, No Iterations 4
[0] Building level 0
[1] Building level 0
[5] Building level 0
[3] Building level 0
[2] Building level 0
[4] Building level 0
[5] Building level 1
[4] Building level 1
[1] Building level 1
[0] Building level 1
[3] Building level 1
[2] Building level 1
[1] Building level 2
[4] Building level 2
[5] Building level 2
[2] Building level 2
[0] Building level 2
[3] Building level 2
[2] Building level 3
[1] Building level 3
[5] Building level 3
[4] Building level 3
[3] Building level 3
[0] Building level 3
[2] Building level 4
[1] Building level 4
[5] Building level 4
[3] Building level 4
[4] Building level 4
[0] Building level 4
[2] Building level 5
[1] Building level 5
[5] Building level 5
[3] Building level 5
[4] Building level 5
[2] Building level 6
[1] Building level 6
[5] Building level 6
[0] Building level 5
[3] Building level 6
[2] Building level 7
[1] Building level 7
[4] Building level 6
[2] Building level 8
[5] Building level 7
[1] Building level 8
[2] Building level 9
[1] Building level 9
[3] Building level 7
[2] Building level 10
[5] Building level 8
[2] Building level 11
[1] Building level 10
[2] Building level 12
[2] Building level 13
[1] Building level 11
[2] Building level 14
[1] Building level 12
[1] Building level 13
[4] Building level 7
[1] Building level 14
[5] Building level 9
[3] Building level 8
[5] Building level 10
[5] Building level 11
[5] Building level 12
[0] Building level 6
[5] Building level 13
[5] Building level 14
[4] Building level 8
[3] Building level 9
[3] Building level 10
[3] Building level 11
[4] Building level 9
[3] Building level 12
[3] Building level 13
[3] Building level 14
[4] Building level 10
[4] Building level 11
[4] Building level 12
[4] Building level 13
[4] Building level 14
[0] Building level 7
[0] Building level 8
[0] Building level 9
[0] Building level 10
[0] Building level 11
[0] Building level 12
[0] Building level 13
[0] Building level 14
14 Level construction complete
initial dot_x = 126222
Iter #1 residual = 0.00255173
Iter #2 residual = 0.00115622
Iter #3 residual = 0.000570632
Iter #4 residual = 0.000292654
Iter #5 residual = 0.000160978
Iter #6 residual = 9.85434e-05
Iter #7 residual = 6.25445e-05
Iter #8 residual = 3.9873e-05
Iter #9 residual = 2.71123e-05
Iter #10 residual = 1.78613e-05
Iter #11 residual = 1.42527e-05
Iter #12 residual = 9.79873e-06
Iter #13 residual = 1.21355e-05
Iter #14 residual = 7.52466e-06
Iter #15 residual = 8.43386e-06
Iter #16 residual = 8.87372e-06
Iter #17 residual = 4.2645e-06
Iter #18 residual = 9.93815e-06
Iter #19 residual = 8.88958e-06
Iter #20 residual = 3.70535e-06
Iter #21 residual = 3.53788e-06
Iter #22 residual = 2.48979e-06
Iter #23 residual = 2.61286e-06
Iter #24 residual = 2.33869e-06
Iter #25 residual = 2.16267e-06
Iter #26 residual = 3.27992e-06
Iter #27 residual = 4.4321e-06
Iter #28 residual = 2.20323e-06
Iter #29 residual = 4.78476e-06
Iter #30 residual = 2.71419e-06
Iter #31 residual = 1.51137e-06
Iter #32 residual = 1.55114e-06
Iter #33 residual = 1.31599e-06
Iter #34 residual = 1.56996e-06
Iter #35 residual = 1.28763e-06
Iter #36 residual = 1.97616e-06
Iter #37 residual = 1.33655e-06
Iter #38 residual = 1.09846e-06
Iter #39 residual = 1.17502e-06
Iter #40 residual = 1.00609e-06
Iter #41 residual = 1.24786e-06
Iter #42 residual = 1.20074e-06
Iter #43 residual = 1.22081e-06
Iter #44 residual = 9.73888e-07
Iter #45 residual = 1.16527e-06
Iter #46 residual = 9.41801e-07
Iter #47 residual = 1.61582e-06
Iter #48 residual = 1.41184e-06
Iter #49 residual = 1.05259e-06
Iter #50 residual = 9.46478e-07
GPU: 50 iters: 10.7539 s: 2.02857 GB/s
GPUAMG:  Solving for pd, Initial residual = 0.00627283, Final residual = 1.03573e-06, No Iterations 50
time step continuity errors : sum local = 8.53704e-11, global = -2.50746e-24, cumulative = -2.50746e-24
ExecutionTime = 72.81 s  ClockTime = 90 s

Courant Number mean: 4.83942e-06 max: 0.00216219 velocity magnitude: 0.0337842
Time = 0.002

MULES: Solving for alpha1
Liquid phase volume fraction = 0.00275421  Min(alpha1) = 0  Max(alpha1) = 1
MULES: Solving for alpha1
Liquid phase volume fraction = 0.00275421  Min(alpha1) = 0  Max(alpha1) = 1
[4] Building level 0
[1] Building level 0
[5] Building level 0
[2] Building level 0
[0] Building level 0
[3] Building level 0
[4] Building level 1
[5] Building level 1
[1] Building level 1
[0] Building level 1
Reconstruction on level 1
[2] Building level 1
[3] Building level 1
[2] Building level 2
[3] Building level 2
[2] Building level 3
[3] Building level 3
[2] Building level 4
[3] Building level 4
[2] Building level 5
[3] Building level 5
Creating AMGLevel 
[4] Building level 2
[0] Building level 2
Reconstruction on level 2
[1] Building level 2
[5] Building level 2
[2] Building level 6
[3] Building level 6
[2] Building level 7
[3] Building level 7
[2] Building level 8
[3] Building level 8
[2] Building level 9
[3] Building level 9
[2] Building level 10
[2] Building level 11
[3] Building level 10
[2] Building level 12
[2] Building level 13
[3] Building level 11
[2] Building level 14
[3] Building level 12
[3] Building level 13
[3] Building level 14
Creating AMGLevel 
[4] Building level 3
[0] Building level 3
Reconstruction on level 3
[1] Building level 3
[5] Building level 3
[1] Building level 4
Creating AMGLevel 
[0] Building level 4
Reconstruction on level 4
[4] Building level 4
[5] Building level 4
[1] Building level 5
Creating AMGLevel 
[0] Building level 5
Reconstruction on level 5
[4] Building level 5
[5] Building level 5
[1] Building level 6
Creating AMGLevel 
[0] Building level 6
Reconstruction on level 6
[1] Building level 7
[4] Building level 6
Creating AMGLevel 
[1] Building level 8
[5] Building level 6
[0] Building level 7
Reconstruction on level 7
[1] Building level 9
[1] Building level 10
[4] Building level 7
Creating AMGLevel 
[0] Building level 8
Reconstruction on level 8
[1] Building level 11
[1] Building level 12
[1] Building level 13
[1] Building level 14
Creating AMGLevel 
[0] Building level 9
Reconstruction on level 9
[5] Building level 7
Creating AMGLevel 
[0] Building level 10
Reconstruction on level 10
[4] Building level 8
Creating AMGLevel 
[0] Building level 11
Reconstruction on level 11
Creating AMGLevel 
[0] Building level 12
Reconstruction on level 12
Creating AMGLevel 
[0] Building level 13
Reconstruction on level 13
Creating AMGLevel 
[0] Building level 14
Reconstruction on level 14
[4] Building level 9
Creating AMGLevel 
14 Level construction complete
[5] Building level 8
[4] Building level 10
[4] Building level 11
[4] Building level 12
[5] Building level 9
[4] Building level 13
[4] Building level 14
[5] Building level 10
[5] Building level 11
[5] Building level 12
[5] Building level 13
[5] Building level 14
initial dot_x = 114209
GMRES:  Solving for topLevelCorr, Initial residual = 0.849396, Final residual = 0.850456, No Iterations 200
Iter #1 residual = 0.003438
GMRES:  Solving for topLevelCorr, Initial residual = 0.930951, Final residual = 1.00781, No Iterations 200
Iter #2 residual = 0.00318132
GMRES:  Solving for topLevelCorr, Initial residual = 0.928836, Final residual = 1.13508, No Iterations 200
Iter #3 residual = 0.00344996
Iter #4 residual = 0.0228685
Iter #5 residual = 0.0199413
Iter #6 residual = 0.0149266
Iter #7 residual = 0.0124848
Iter #8 residual = 0.00461561
Iter #9 residual = 0.00705475
Iter #10 residual = 0.00352996
Iter #11 residual = 0.00400394
Iter #12 residual = 0.0034616
Iter #13 residual = 0.00382964
Iter #14 residual = 0.00240548
Iter #15 residual = 0.00400992
Iter #16 residual = 0.00269689
Iter #17 residual = 0.00449194
Iter #18 residual = 0.00200256
Iter #19 residual = 0.00190584
Iter #20 residual = 0.00173934
Iter #21 residual = 0.00211986
Iter #22 residual = 0.00340877
Iter #23 residual = 0.00208896
Iter #24 residual = 0.000913194
Iter #25 residual = 0.00197785
Iter #26 residual = 0.00386521
Iter #27 residual = 0.00210688
Iter #28 residual = 0.00259734
Iter #29 residual = 0.00288778
Iter #30 residual = 0.00111662
Iter #31 residual = 0.00142624
Iter #32 residual = 0.000578235
Iter #33 residual = 0.00108616
Iter #34 residual = 0.000926396
Iter #35 residual = 0.00110801
Iter #36 residual = 0.000742778
Iter #37 residual = 0.000561746
Iter #38 residual = 0.000325933
Iter #39 residual = 0.000613727
Iter #40 residual = 0.00105425
Iter #41 residual = 0.000718151
Iter #42 residual = 0.00037862
GPU: 42 iters: 9.39583 s: 1.9503 GB/s
GPUAMG:  Solving for pd, Initial residual = 0.00446248, Final residual = 0.000153813, No Iterations 42
[5] Building level 0
[4] Building level 0
[0] Building level 0
[3] Building level 0
[2] Building level 0
[1] Building level 0
[1] Building level 1
[4] Building level 1
[5] Building level 1
[3] Building level 1
[0] Building level 1
[2] Building level 1
[1] Building level 2
[5] Building level 2
[4] Building level 2
[0] Building level 2
[2] Building level 2
[3] Building level 2
[2] Building level 3
[3] Building level 3
[5] Building level 3
[4] Building level 3
[1] Building level 3
[0] Building level 3
[3] Building level 4
[2] Building level 4
[1] Building level 4
[5] Building level 4
[4] Building level 4
[0] Building level 4
[1] Building level 5
[3] Building level 5
[2] Building level 5
[5] Building level 5
[4] Building level 5
[0] Building level 5
[1] Building level 6
[3] Building level 6
[2] Building level 6
[5] Building level 6
[4] Building level 6
[1] Building level 7
[0] Building level 6
[3] Building level 7
[1] Building level 8
[2] Building level 7
[1] Building level 9
[5] Building level 7
[4] Building level 7
[1] Building level 10
[1] Building level 11
[3] Building level 8
[1] Building level 12
[1] Building level 13
[1] Building level 14
[2] Building level 8
[3] Building level 9
[5] Building level 8
[4] Building level 8
[0] Building level 7
[3] Building level 10
[2] Building level 9
[3] Building level 11
[5] Building level 9
[3] Building level 12
[3] Building level 13
[3] Building level 14
[2] Building level 10
[4] Building level 9
[2] Building level 11
[5] Building level 10
[2] Building level 12
[4] Building level 10
[2] Building level 13
[2] Building level 14
[5] Building level 11
[4] Building level 11
[5] Building level 12
[5] Building level 13
[5] Building level 14
[4] Building level 12
[4] Building level 13
[4] Building level 14
[0] Building level 8
[0] Building level 9
[0] Building level 10
[0] Building level 11
[0] Building level 12
[0] Building level 13
[0] Building level 14
14 Level construction complete
initial dot_x = 9.22e+09
Iter #1 residual = 0.0294051
Iter #2 residual = 0.0125222
Iter #3 residual = 0.0124737
Iter #4 residual = 0.0223374
Iter #5 residual = 0.00947264
Iter #6 residual = 0.00763728
Iter #7 residual = 0.00739283
Iter #8 residual = 0.00955381
Iter #9 residual = 0.00534809
Iter #10 residual = 0.00876085
Iter #11 residual = 0.0079836
Iter #12 residual = 0.00934327
Iter #13 residual = 0.00902302
Iter #14 residual = 0.00877857
Iter #15 residual = 0.00416988
Iter #16 residual = 0.00550792
Iter #17 residual = 0.0041949
Iter #18 residual = 0.00612436
Iter #19 residual = 0.00386502
Iter #20 residual = 0.00962264
Iter #21 residual = 0.00387559
Iter #22 residual = 0.00306505
Iter #23 residual = 0.00293788
Iter #24 residual = 0.0039206
Iter #25 residual = 0.00225558
Iter #26 residual = 0.00552932
Iter #27 residual = 0.0052766
Iter #28 residual = 0.00228384
Iter #29 residual = 0.00231891
Iter #30 residual = 0.00274539
Iter #31 residual = 0.00183843
Iter #32 residual = 0.00331766
Iter #33 residual = 0.00280968
Iter #34 residual = 0.00401182
Iter #35 residual = 0.00188731
Iter #36 residual = 0.00161742
Iter #37 residual = 0.00147364
Iter #38 residual = 0.00282625
Iter #39 residual = 0.00386479
Iter #40 residual = 0.0019736
Iter #41 residual = 0.00144864
Iter #42 residual = 0.000829838
Iter #43 residual = 0.00138727
Iter #44 residual = 0.00083388
Iter #45 residual = 0.00149164
Iter #46 residual = 0.00253708
Iter #47 residual = 0.0014409
Iter #48 residual = 0.000393919
Iter #49 residual = 0.000358073
Iter #50 residual = 0.00118061
GPU: 50 iters: 11.151 s: 1.95633 GB/s
GPUAMG:  Solving for pd, Initial residual = 0.00384197, Final residual = 0.00081619, No Iterations 50
[5] Building level 0
[2] Building level 0
[4] Building level 0
[1] Building level 0
[0] Building level 0
[3] Building level 0
[1] Building level 1
[5] Building level 1
[4] Building level 1
[3] Building level 1
[0] Building level 1
[2] Building level 1
[1] Building level 2
[5] Building level 2
[0] Building level 2
[4] Building level 2
[2] Building level 2
[3] Building level 2
[5] Building level 3
[2] Building level 3
[3] Building level 3
[4] Building level 3
[1] Building level 3
[0] Building level 3
[3] Building level 4
[5] Building level 4
[1] Building level 4
[2] Building level 4
[4] Building level 4
[0] Building level 4
[1] Building level 5
[3] Building level 5
[5] Building level 5
[2] Building level 5
[0] Building level 5
[4] Building level 5
[1] Building level 6
[3] Building level 6
[5] Building level 6
[0] Building level 6
[2] Building level 6
[1] Building level 7
[4] Building level 6
[1] Building level 8
[5] Building level 7
[3] Building level 7
[1] Building level 9
[1] Building level 10
[0] Building level 7
[2] Building level 7
[1] Building level 11
[1] Building level 12
[1] Building level 13
[5] Building level 8
[1] Building level 14
[4] Building level 7
[3] Building level 8
[5] Building level 9
[3] Building level 9
[0] Building level 8
[2] Building level 8
[5] Building level 10
[3] Building level 10
[4] Building level 8
[3] Building level 11
[5] Building level 11
[3] Building level 12
[5] Building level 12
[5] Building level 13
[3] Building level 13
[3] Building level 14
[5] Building level 14
[0] Building level 9
[2] Building level 9
[4] Building level 9
[0] Building level 10
[0] Building level 11
[2] Building level 10
[0] Building level 12
[4] Building level 10
[0] Building level 13
[0] Building level 14
14 Level construction complete
[2] Building level 11
[4] Building level 11
[2] Building level 12
[4] Building level 12
[2] Building level 13
[4] Building level 13
[2] Building level 14
[4] Building level 14
initial dot_x = 1.3136e+08
Iter #1 residual = 0.0217969
Iter #2 residual = 0.0229804
Iter #3 residual = 0.0239938
Iter #4 residual = 0.0187817
Iter #5 residual = 0.0163265
Iter #6 residual = 0.0136344
Iter #7 residual = 0.015636
Iter #8 residual = 0.0139167
Iter #9 residual = 0.0075757
Iter #10 residual = 0.00587816
Iter #11 residual = 0.00945784
Iter #12 residual = 0.00785337
Iter #13 residual = 0.00533676
Iter #14 residual = 0.00853132
Iter #15 residual = 0.00510669
Iter #16 residual = 0.0140686
Iter #17 residual = 0.0127228
Iter #18 residual = 0.0117998
Iter #19 residual = 0.00523889
Iter #20 residual = 0.0060473
Iter #21 residual = 0.00442647
Iter #22 residual = 0.00667334
Iter #23 residual = 0.00441208
Iter #24 residual = 0.00844053
Iter #25 residual = 0.00506484
Iter #26 residual = 0.00766389
Iter #27 residual = 0.0117251
Iter #28 residual = 0.00553737
Iter #29 residual = 0.00578702
Iter #30 residual = 0.00732325
Iter #31 residual = 0.0122711
Iter #32 residual = 0.00687568
Iter #33 residual = 0.00652943
Iter #34 residual = 0.00463841
Iter #35 residual = 0.00900357
Iter #36 residual = 0.00435617
Iter #37 residual = 0.00505271
Iter #38 residual = 0.00491359
Iter #39 residual = 0.00340508
Iter #40 residual = 0.00365788
Iter #41 residual = 0.00321765
Iter #42 residual = 0.00316425
Iter #43 residual = 0.00378251
Iter #44 residual = 0.00505484
Iter #45 residual = 0.00254436
Iter #46 residual = 0.00647346
Iter #47 residual = 0.00453304
Iter #48 residual = 0.00412394
Iter #49 residual = 0.00342395
Iter #50 residual = 0.00540071
GPU: 50 iters: 11.1792 s: 1.95139 GB/s
GPUAMG:  Solving for pd, Initial residual = 0.00421653, Final residual = 0.00262653, No Iterations 50
time step continuity errors : sum local = 1.52933e-07, global = -4.12183e-08, cumulative = -4.12183e-08
ExecutionTime = 140.9 s  ClockTime = 160 s

Courant Number mean: 1.18311e-05 max: 0.157498 velocity magnitude: 1.23045
Time = 0.003

MULES: Solving for alpha1
Liquid phase volume fraction = 0.00275424  Min(alpha1) = -1.72761e-31  Max(alpha1) = 1
MULES: Solving for alpha1
Liquid phase volume fraction = 0.00275426  Min(alpha1) = -4.93038e-35  Max(alpha1) = 1
[3] Building level 0
[4] Building level 0
[5] Building level 0
[2] Building level 0
[0] Building level 0
[1] Building level 0
[5] Building level 1
[1] Building level 1
[4] Building level 1
[3] Building level 1
[0] Building level 1
Reconstruction on level 1
[2] Building level 1
[1] Building level 2
[4] Building level 2
[2] Building level 2
[3] Building level 2
[2] Building level 3
[3] Building level 3
[2] Building level 4
[3] Building level 4
[1] Building level 3
[4] Building level 3
[2] Building level 5
[3] Building level 5
Creating AMGLevel 
[0] Building level 2
Reconstruction on level 2
[5] Building level 2
[2] Building level 6
[1] Building level 4
[3] Building level 6
[4] Building level 4
[2] Building level 7
[3] Building level 7
[2] Building level 8
[3] Building level 8
[2] Building level 9
[3] Building level 9
[2] Building level 10
[3] Building level 10
[2] Building level 11
[3] Building level 11
[2] Building level 12
[3] Building level 12
[2] Building level 13
[3] Building level 13
[2] Building level 14
[3] Building level 14
[1] Building level 5
[4] Building level 5
Creating AMGLevel 
[0] Building level 3
Reconstruction on level 3
[5] Building level 3
[1] Building level 6
[4] Building level 6
[1] Building level 7
[4] Building level 7
[1] Building level 8
[4] Building level 8
[1] Building level 9
[1] Building level 10
[4] Building level 9
[1] Building level 11
[1] Building level 12
[4] Building level 10
[1] Building level 13
[1] Building level 14
[4] Building level 11
[4] Building level 12
[4] Building level 13
[4] Building level 14
Creating AMGLevel 
[0] Building level 4
Reconstruction on level 4
[5] Building level 4
Creating AMGLevel 
[0] Building level 5
Reconstruction on level 5
[5] Building level 5
Creating AMGLevel 
[0] Building level 6
Reconstruction on level 6
[5] Building level 6
Creating AMGLevel 
[0] Building level 7
Reconstruction on level 7
[5] Building level 7
Creating AMGLevel 
[0] Building level 8
Reconstruction on level 8
[5] Building level 8
Creating AMGLevel 
[0] Building level 9
Reconstruction on level 9
[5] Building level 9
Creating AMGLevel 
[0] Building level 10
Reconstruction on level 10
Creating AMGLevel 
[0] Building level 11
Reconstruction on level 11
[5] Building level 10
Creating AMGLevel 
[0] Building level 12
Reconstruction on level 12
[5] Building level 11
Creating AMGLevel 
[0] Building level 13
Reconstruction on level 13
Creating AMGLevel 
[0] Building level 14
Reconstruction on level 14
[5] Building level 12
Creating AMGLevel 
14 Level construction complete
[5] Building level 13
[5] Building level 14
initial dot_x = 4.75892e+09
Iter #1 residual = 0.0186364
Iter #2 residual = 0.0149134
Iter #3 residual = 0.0168123
Iter #4 residual = 0.0375597
Iter #5 residual = 0.0219216
Iter #6 residual = 0.0152342
Iter #7 residual = 0.0115294
Iter #8 residual = 0.00822571
Iter #9 residual = 0.0069831
Iter #10 residual = 0.00589516
Iter #11 residual = 0.0131689
Iter #12 residual = 0.00853471
Iter #13 residual = 0.00880298
Iter #14 residual = 0.00788691
Iter #15 residual = 0.00533995
Iter #16 residual = 0.00353587
Iter #17 residual = 0.00354184
Iter #18 residual = 0.00658991
Iter #19 residual = 0.0047308
Iter #20 residual = 0.0076981
Iter #21 residual = 0.00539824
Iter #22 residual = 0.0116103
Iter #23 residual = 0.00609469
GMRES:  Solving for topLevelCorr, Initial residual = 0.771838, Final residual = 0.806758, No Iterations 200
Iter #24 residual = 0.00177488
Iter #25 residual = 0.0242324
Iter #26 residual = 0.0165488
Iter #27 residual = 0.00873392
Iter #28 residual = 0.00358807
Iter #29 residual = 0.00238696
Iter #30 residual = 0.00298392
Iter #31 residual = 0.00214263
Iter #32 residual = 0.00755793
Iter #33 residual = 0.00445858
Iter #34 residual = 0.00381241
Iter #35 residual = 0.00321743
Iter #36 residual = 0.00126484
Iter #37 residual = 0.00249339
Iter #38 residual = 0.00186016
Iter #39 residual = 0.00526849
Iter #40 residual = 0.00324767
Iter #41 residual = 0.00339214
Iter #42 residual = 0.00327944
Iter #43 residual = 0.00158095
Iter #44 residual = 0.00179294
Iter #45 residual = 0.00129017
Iter #46 residual = 0.00477762
Iter #47 residual = 0.00313898
Iter #48 residual = 0.00244058
Iter #49 residual = 0.00195807
Iter #50 residual = 0.00151208
GPU: 50 iters: 11.1298 s: 1.96007 GB/s
GPUAMG:  Solving for pd, Initial residual = 0.0135365, Final residual = 0.00167956, No Iterations 50
[5] Building level 0
[1] Building level 0
[0] Building level 0
[2] Building level 0
[3] Building level 0
[4] Building level 0
[5] Building level 1
[4] Building level 1
[1] Building level 1
[0] Building level 1
[2] Building level 1
[3] Building level 1
[5] Building level 2
[0] Building level 2
[4] Building level 2
[1] Building level 2
[2] Building level 2
[3] Building level 2
[2] Building level 3
[5] Building level 3
[4] Building level 3
[0] Building level 3
[3] Building level 3
[1] Building level 3
[2] Building level 4
[5] Building level 4
[0] Building level 4
[3] Building level 4
[1] Building level 4
[4] Building level 4
[2] Building level 5
[5] Building level 5
[0] Building level 5
[3] Building level 5
[1] Building level 5
[4] Building level 5
[5] Building level 6
[2] Building level 6
[0] Building level 6
[3] Building level 6
[1] Building level 6
[4] Building level 6
[0] Building level 7
[5] Building level 7
[2] Building level 7
[3] Building level 7
[5] Building level 8
[0] Building level 8
[2] Building level 8
[1] Building level 7
[0] Building level 9
[5] Building level 9
[2] Building level 9
[4] Building level 7
[5] Building level 10
[0] Building level 10
[3] Building level 8
[2] Building level 10
[5] Building level 11
[0] Building level 11
[0] Building level 12
[5] Building level 12
[2] Building level 11
[0] Building level 13
[5] Building level 13
[0] Building level 14
[5] Building level 14
14 Level construction complete
[2] Building level 12
[2] Building level 13
[2] Building level 14
[3] Building level 9
[1] Building level 8
[3] Building level 10
[4] Building level 8
[3] Building level 11
[3] Building level 12
[1] Building level 9
[3] Building level 13
[3] Building level 14
[4] Building level 9
[1] Building level 10
[1] Building level 11
[1] Building level 12
[4] Building level 10
[1] Building level 13
[1] Building level 14
[4] Building level 11
[4] Building level 12
[4] Building level 13
[4] Building level 14
initial dot_x = 7.27511e+07
Iter #1 residual = 0.0077896
Iter #2 residual = 0.0048157
Iter #3 residual = 0.00543961
Iter #4 residual = 0.00388479
Iter #5 residual = 0.0140295
Iter #6 residual = 0.00880822
Iter #7 residual = 0.00421361
Iter #8 residual = 0.0055143
Iter #9 residual = 0.00297858
Iter #10 residual = 0.00250575
Iter #11 residual = 0.00185202
Iter #12 residual = 0.00148704
Iter #13 residual = 0.00104484
Iter #14 residual = 0.00133004
Iter #15 residual = 0.00125418
Iter #16 residual = 0.00100067
Iter #17 residual = 0.000953432
Iter #18 residual = 0.00174395
Iter #19 residual = 0.00120451
Iter #20 residual = 0.00291182
Iter #21 residual = 0.00166178
Iter #22 residual = 0.0022312
Iter #23 residual = 0.00144004
Iter #24 residual = 0.00535327
Iter #25 residual = 0.00286935
Iter #26 residual = 0.001856
Iter #27 residual = 0.000802809
Iter #28 residual = 0.00135001
Iter #29 residual = 0.000876818
Iter #30 residual = 0.00269675
Iter #31 residual = 0.0013825
Iter #32 residual = 0.00146085
Iter #33 residual = 0.00114151
Iter #34 residual = 0.000674515
Iter #35 residual = 0.00071877
Iter #36 residual = 0.000792491
Iter #37 residual = 0.000602063
Iter #38 residual = 0.00110893
Iter #39 residual = 0.00075174
Iter #40 residual = 0.00418856
Iter #41 residual = 0.00218978
Iter #42 residual = 0.00116049
Iter #43 residual = 0.000503522
Iter #44 residual = 0.000537087
GPU: 44 iters: 9.83517 s: 1.9519 GB/s
GPUAMG:  Solving for pd, Initial residual = 0.00700226, Final residual = 0.00034373, No Iterations 44
[4] Building level 0
[3] Building level 0
[2] Building level 0
[5] Building level 0
[0] Building level 0
[1] Building level 0
[5] Building level 1
[1] Building level 1
[4] Building level 1
[2] Building level 1
[0] Building level 1
[3] Building level 1
[2] Building level 2
[5] Building level 2
[0] Building level 2
[1] Building level 2
[4] Building level 2
[3] Building level 2
[2] Building level 3
[5] Building level 3
[4] Building level 3
[0] Building level 3
[1] Building level 3
[3] Building level 3
[2] Building level 4
[0] Building level 4
[5] Building level 4
[3] Building level 4
[1] Building level 4
[4] Building level 4
[2] Building level 5
[0] Building level 5
[5] Building level 5
[1] Building level 5
[3] Building level 5
[4] Building level 5
[2] Building level 6
[5] Building level 6
[0] Building level 6
[1] Building level 6
[2] Building level 7
[3] Building level 6
[0] Building level 7
[4] Building level 6
[5] Building level 7
[2] Building level 8
[0] Building level 8
[2] Building level 9
[5] Building level 8
[2] Building level 10
[1] Building level 7
[2] Building level 11
[0] Building level 9
[2] Building level 12
[2] Building level 13
[2] Building level 14
[5] Building level 9
[0] Building level 10
[3] Building level 7
[5] Building level 10
[0] Building level 11
[0] Building level 12
[0] Building level 13
[5] Building level 11
[0] Building level 14
14 Level construction complete
[5] Building level 12
[5] Building level 13
[4] Building level 7
[5] Building level 14
[1] Building level 8
[3] Building level 8
[1] Building level 9
[4] Building level 8
[1] Building level 10
[1] Building level 11
[3] Building level 9
[1] Building level 12
[1] Building level 13
[1] Building level 14
[4] Building level 9
[3] Building level 10
[3] Building level 11
[4] Building level 10
[3] Building level 12
[3] Building level 13
[3] Building level 14
[4] Building level 11
[4] Building level 12
[4] Building level 13
[4] Building level 14
initial dot_x = 8.65432e+08
Iter #1 residual = 0.0104501
Iter #2 residual = 0.00863655
Iter #3 residual = 0.0114513
Iter #4 residual = 0.00690481
Iter #5 residual = 0.00427963
Iter #6 residual = 0.00255606
Iter #7 residual = 0.00221803
Iter #8 residual = 0.00238495
Iter #9 residual = 0.00147299
Iter #10 residual = 0.00149156
Iter #11 residual = 0.00115288
Iter #12 residual = 0.00136292
Iter #13 residual = 0.00101767
Iter #14 residual = 0.00313427
Iter #15 residual = 0.00202434
Iter #16 residual = 0.00156692
Iter #17 residual = 0.00125248
Iter #18 residual = 0.000807524
Iter #19 residual = 0.000734111
Iter #20 residual = 0.000790919
Iter #21 residual = 0.000676531
Iter #22 residual = 0.00086643
Iter #23 residual = 0.000686394
Iter #24 residual = 0.00159747
Iter #25 residual = 0.00124649
Iter #26 residual = 0.0014684
Iter #27 residual = 0.000732519
Iter #28 residual = 0.000457241
Iter #29 residual = 0.000235269
Iter #30 residual = 0.000183528
Iter #31 residual = 0.00012305
Iter #32 residual = 0.000157422
Iter #33 residual = 0.0001015
Iter #34 residual = 0.000381823
Iter #35 residual = 0.00018599
Iter #36 residual = 0.00010462
Iter #37 residual = 6.72103e-05
Iter #38 residual = 0.00011533
Iter #39 residual = 6.93403e-05
Iter #40 residual = 0.000173854
Iter #41 residual = 0.000117166
Iter #42 residual = 8.85119e-05
Iter #43 residual = 5.08687e-05
Iter #44 residual = 6.87897e-05
Iter #45 residual = 4.53622e-05
Iter #46 residual = 5.28019e-05
Iter #47 residual = 4.71456e-05
Iter #48 residual = 2.71151e-05
Iter #49 residual = 1.94034e-05
Iter #50 residual = 1.54449e-05
GPU: 50 iters: 11.1896 s: 1.94958 GB/s
GPUAMG:  Solving for pd, Initial residual = 0.00527453, Final residual = 3.09524e-05, No Iterations 50
time step continuity errors : sum local = 2.3837e-08, global = -2.23291e-08, cumulative = -6.35473e-08
ExecutionTime = 209.3 s  ClockTime = 229 s

Courant Number mean: 1.63383e-05 max: 0.130161 velocity magnitude: 1.01688
Time = 0.004

MULES: Solving for alpha1
Liquid phase volume fraction = 0.00275427  Min(alpha1) = -9.02654e-31  Max(alpha1) = 1
MULES: Solving for alpha1
Liquid phase volume fraction = 0.00275428  Min(alpha1) = -7.34686e-30  Max(alpha1) = 1
[2] Building level 0
[0] Building level 0
[3] Building level 0
[4] Building level 0
[5] Building level 0
[1] Building level 0
[4] Building level 1
[1] Building level 1
[5] Building level 1
[3] Building level 1
[2] Building level 1
[0] Building level 1
Reconstruction on level 1
[2] Building level 2
[3] Building level 2
[2] Building level 3
[3] Building level 3
[2] Building level 4
[3] Building level 4
[2] Building level 5
[3] Building level 5
Creating AMGLevel 
[4] Building level 2
[0] Building level 2
Reconstruction on level 2
[1] Building level 2
[5] Building level 2
[2] Building level 6
[3] Building level 6
[2] Building level 7
[3] Building level 7
[2] Building level 8
[3] Building level 8
[2] Building level 9
[3] Building level 9
[2] Building level 10
[3] Building level 10
[2] Building level 11
[3] Building level 11
[2] Building level 12
[3] Building level 12
[2] Building level 13
[3] Building level 13
[2] Building level 14
[3] Building level 14
Creating AMGLevel 
[4] Building level 3
[0] Building level 3
Reconstruction on level 3
[5] Building level 3
[1] Building level 3
[4] Building level 4
Creating AMGLevel 
[5] Building level 4
[0] Building level 4
Reconstruction on level 4
[1] Building level 4
[4] Building level 5
Creating AMGLevel 
[5] Building level 5
[1] Building level 5
[0] Building level 5
Reconstruction on level 5
[4] Building level 6
[5] Building level 6
Creating AMGLevel 
[1] Building level 6
[0] Building level 6
Reconstruction on level 6
[4] Building level 7
[5] Building level 7
Creating AMGLevel 
[0] Building level 7
Reconstruction on level 7
[1] Building level 7
[4] Building level 8
[5] Building level 8
Creating AMGLevel 
[1] Building level 8
[0] Building level 8
Reconstruction on level 8
[4] Building level 9
[5] Building level 9
Creating AMGLevel 
[1] Building level 9
[0] Building level 9
Reconstruction on level 9
[4] Building level 10
[5] Building level 10
[4] Building level 11
Creating AMGLevel 
[0] Building level 10
Reconstruction on level 10
[1] Building level 10
[4] Building level 12
[5] Building level 11
[4] Building level 13
[1] Building level 11
Creating AMGLevel 
[0] Building level 11
Reconstruction on level 11
[5] Building level 12
[4] Building level 14
[1] Building level 12
[5] Building level 13
Creating AMGLevel 
[0] Building level 12
Reconstruction on level 12
[5] Building level 14
[1] Building level 13
Creating AMGLevel 
[0] Building level 13
Reconstruction on level 13
[1] Building level 14
Creating AMGLevel 
[0] Building level 14
Reconstruction on level 14
Creating AMGLevel 
14 Level construction complete
initial dot_x = 1.05776e+09
Iter #1 residual = 0.0166712
Iter #2 residual = 0.0270128
Iter #3 residual = 0.0163973
Iter #4 residual = 0.0186079
Iter #5 residual = 0.0103416
Iter #6 residual = 0.00573844
Iter #7 residual = 0.00473685
Iter #8 residual = 0.00469771
Iter #9 residual = 0.00460048
Iter #10 residual = 0.00455515
Iter #11 residual = 0.00449008
Iter #12 residual = 0.00437967
Iter #13 residual = 0.00494463
Iter #14 residual = 0.00386297
Iter #15 residual = 0.00355988
Iter #16 residual = 0.00432387
Iter #17 residual = 0.00446355
Iter #18 residual = 0.00381482
Iter #19 residual = 0.00373112
Iter #20 residual = 0.00436395
Iter #21 residual = 0.00398581
Iter #22 residual = 0.00499366
Iter #23 residual = 0.00332307
Iter #24 residual = 0.00476388
Iter #25 residual = 0.00348174
Iter #26 residual = 0.0162465
Iter #27 residual = 0.00970979
Iter #28 residual = 0.00622719
Iter #29 residual = 0.00414068
Iter #30 residual = 0.0029917
Iter #31 residual = 0.00314526
Iter #32 residual = 0.00242777
Iter #33 residual = 0.00377499
Iter #34 residual = 0.00741902
Iter #35 residual = 0.00430108
Iter #36 residual = 0.00294091
Iter #37 residual = 0.00118188
Iter #38 residual = 0.00227228
Iter #39 residual = 0.0013168
Iter #40 residual = 0.00121123
Iter #41 residual = 0.00103636
Iter #42 residual = 0.000756556
GPU: 42 iters: 8.80151 s: 2.08199 GB/s
GPUAMG:  Solving for pd, Initial residual = 0.0146673, Final residual = 0.000676562, No Iterations 42
[0] Building level 0
[2] Building level 0
[5] Building level 0
[4] Building level 0
[3] Building level 0
[1] Building level 0
[5] Building level 1
[4] Building level 1
[1] Building level 1
[2] Building level 1
[0] Building level 1
[3] Building level 1
[4] Building level 2
[1] Building level 2
[0] Building level 2
[5] Building level 2
[2] Building level 2
[3] Building level 2
[4] Building level 3
[1] Building level 3
[2] Building level 3
[5] Building level 3
[0] Building level 3
[3] Building level 3
[1] Building level 4
[2] Building level 4
[4] Building level 4
[3] Building level 4
[5] Building level 4
[0] Building level 4
[1] Building level 5
[2] Building level 5
[4] Building level 5
[3] Building level 5
[5] Building level 5
[0] Building level 5
[1] Building level 6
[2] Building level 6
[4] Building level 6
[1] Building level 7
[3] Building level 6
[5] Building level 6
[1] Building level 8
[4] Building level 7
[2] Building level 7
[1] Building level 9
[0] Building level 6
[1] Building level 10
[1] Building level 11
[1] Building level 12
[1] Building level 13
[4] Building level 8
[1] Building level 14
[2] Building level 8
[3] Building level 7
[4] Building level 9
[5] Building level 7
[2] Building level 9
[4] Building level 10
[2] Building level 10
[4] Building level 11
[4] Building level 12
[2] Building level 11
[4] Building level 13
[4] Building level 14
[2] Building level 12
[2] Building level 13
[2] Building level 14
[3] Building level 8
[0] Building level 7
[5] Building level 8
[3] Building level 9
[5] Building level 9
[3] Building level 10
[3] Building level 11
[5] Building level 10
[3] Building level 12
[3] Building level 13
[3] Building level 14
[5] Building level 11
[0] Building level 8
[5] Building level 12
[5] Building level 13
[5] Building level 14
[0] Building level 9
[0] Building level 10
[0] Building level 11
[0] Building level 12
[0] Building level 13
[0] Building level 14
14 Level construction complete
initial dot_x = 5.93472e+08
Iter #1 residual = 0.00646437
Iter #2 residual = 0.0117407
Iter #3 residual = 0.00792727
Iter #4 residual = 0.00587445
Iter #5 residual = 0.0026495
Iter #6 residual = 0.00165385
Iter #7 residual = 0.00141387
Iter #8 residual = 0.00118081
Iter #9 residual = 0.000487238
Iter #10 residual = 0.000590224
Iter #11 residual = 0.000406598
GPU: 11 iters: 2.47594 s: 1.93838 GB/s
GPUAMG:  Solving for pd, Initial residual = 0.00780309, Final residual = 0.000332945, No Iterations 11
[5] Building level 0
[4] Building level 0
[1] Building level 0
[2] Building level 0
[3] Building level 0
[0] Building level 0
[4] Building level 1
[1] Building level 1
[5] Building level 1
[0] Building level 1
[2] Building level 1
[3] Building level 1
[4] Building level 2
[1] Building level 2
[2] Building level 2
[0] Building level 2
[5] Building level 2
[3] Building level 2
[4] Building level 3
[1] Building level 3
[2] Building level 3
[5] Building level 3
[0] Building level 3
[3] Building level 3
[1] Building level 4
[2] Building level 4
[4] Building level 4
[5] Building level 4
[3] Building level 4
[0] Building level 4
[1] Building level 5
[2] Building level 5
[4] Building level 5
[5] Building level 5
[3] Building level 5
[0] Building level 5
[1] Building level 6
[2] Building level 6
[4] Building level 6
[1] Building level 7
[5] Building level 6
[2] Building level 7
[1] Building level 8
[3] Building level 6
[4] Building level 7
[1] Building level 9
[1] Building level 10
[0] Building level 6
[2] Building level 8
[1] Building level 11
[1] Building level 12
[1] Building level 13
[1] Building level 14
[4] Building level 8
[2] Building level 9
[4] Building level 9
[2] Building level 10
[5] Building level 7
[2] Building level 11
[2] Building level 12
[4] Building level 10
[2] Building level 13
[2] Building level 14
[4] Building level 11
[3] Building level 7
[4] Building level 12
[4] Building level 13
[4] Building level 14
[5] Building level 8
[0] Building level 7
[3] Building level 8
[5] Building level 9
[5] Building level 10
[5] Building level 11
[3] Building level 9
[5] Building level 12
[0] Building level 8
[5] Building level 13
[5] Building level 14
[3] Building level 10
[3] Building level 11
[3] Building level 12
[3] Building level 13
[3] Building level 14
[0] Building level 9
[0] Building level 10
[0] Building level 11
[0] Building level 12
[0] Building level 13
[0] Building level 14
14 Level construction complete
initial dot_x = 3.32508e+07
Iter #1 residual = 0.00906551
Iter #2 residual = 0.00828372
Iter #3 residual = 0.0041355
Iter #4 residual = 0.00421342
Iter #5 residual = 0.00399044
Iter #6 residual = 0.00464127
Iter #7 residual = 0.0034395
Iter #8 residual = 0.00548225
Iter #9 residual = 0.00383134
Iter #10 residual = 0.00821675
Iter #11 residual = 0.00426598
Iter #12 residual = 0.00555565
Iter #13 residual = 0.00513184
Iter #14 residual = 0.00366666
Iter #15 residual = 0.00263956
Iter #16 residual = 0.0096361
Iter #17 residual = 0.00624273
Iter #18 residual = 0.00411942
Iter #19 residual = 0.0034938
Iter #20 residual = 0.00268893
Iter #21 residual = 0.00777487
Iter #22 residual = 0.00499829
Iter #23 residual = 0.00327323
Iter #24 residual = 0.00237926
Iter #25 residual = 0.00180036
Iter #26 residual = 0.00233429
Iter #27 residual = 0.00169798
Iter #28 residual = 0.00537857
Iter #29 residual = 0.00314227
Iter #30 residual = 0.00184628
Iter #31 residual = 0.00154233
Iter #32 residual = 0.00276463
Iter #33 residual = 0.00161522
Iter #34 residual = 0.0062034
Iter #35 residual = 0.00405349
Iter #36 residual = 0.0014287
Iter #37 residual = 0.000874083
Iter #38 residual = 0.00300753
Iter #39 residual = 0.00182395
Iter #40 residual = 0.00126612
Iter #41 residual = 0.000618419
Iter #42 residual = 0.000643296
Iter #43 residual = 0.000464241
Iter #44 residual = 0.000488651
Iter #45 residual = 0.000507715
Iter #46 residual = 0.000494069
Iter #47 residual = 0.00133881
Iter #48 residual = 0.000948319
Iter #49 residual = 0.00055487
Iter #50 residual = 0.000311333
GPU: 50 iters: 10.533 s: 2.07111 GB/s
GPUAMG:  Solving for pd, Initial residual = 0.00730662, Final residual = 0.000391825, No Iterations 50
time step continuity errors : sum local = 2.76888e-08, global = -1.05231e-08, cumulative = -7.40705e-08
ExecutionTime = 267.93 s  ClockTime = 290 s

Courant Number mean: 2.01201e-05 max: 0.0619934 velocity magnitude: 0.484323
Time = 0.005

MULES: Solving for alpha1
Liquid phase volume fraction = 0.00275429  Min(alpha1) = -1.11213e-30  Max(alpha1) = 1
MULES: Solving for alpha1
Liquid phase volume fraction = 0.00275429  Min(alpha1) = -1.05768e-30  Max(alpha1) = 1
[5] Building level 0
[3] Building level 0
[1] Building level 0
[4] Building level 0
[0] Building level 0
[2] Building level 0
[5] Building level 1
[4] Building level 1
[1] Building level 1
[3] Building level 1
[0] Building level 1
Reconstruction on level 1
[2] Building level 1
[2] Building level 2
[3] Building level 2
[2] Building level 3
[3] Building level 3
[2] Building level 4
[3] Building level 4
[2] Building level 5
[3] Building level 5
Creating AMGLevel 
[5] Building level 2
[0] Building level 2
Reconstruction on level 2
[4] Building level 2
[1] Building level 2
[3] Building level 6
[2] Building level 6
[3] Building level 7
[2] Building level 7
[3] Building level 8
[2] Building level 8
[3] Building level 9
[2] Building level 9
[3] Building level 10
[2] Building level 10
[2] Building level 11
[3] Building level 11
[2] Building level 12
[2] Building level 13
[3] Building level 12
[2] Building level 14
[3] Building level 13
[3] Building level 14
Creating AMGLevel 
[5] Building level 3
[0] Building level 3
Reconstruction on level 3
[1] Building level 3
[4] Building level 3
[5] Building level 4
Creating AMGLevel 
[0] Building level 4
Reconstruction on level 4
[4] Building level 4
[1] Building level 4
[5] Building level 5
Creating AMGLevel 
[4] Building level 5
[0] Building level 5
Reconstruction on level 5
[1] Building level 5
[5] Building level 6
[4] Building level 6
[1] Building level 6
Creating AMGLevel 
[0] Building level 6
Reconstruction on level 6
[5] Building level 7
[1] Building level 7
[4] Building level 7
Creating AMGLevel 
[0] Building level 7
Reconstruction on level 7
[5] Building level 8
[1] Building level 8
[4] Building level 8
Creating AMGLevel 
[0] Building level 8
Reconstruction on level 8
[5] Building level 9
[4] Building level 9
[1] Building level 9
[5] Building level 10
Creating AMGLevel 
[0] Building level 9
Reconstruction on level 9
[5] Building level 11
[5] Building level 12
[1] Building level 10
[4] Building level 10
[5] Building level 13
Creating AMGLevel 
[0] Building level 10
Reconstruction on level 10
[1] Building level 11
[5] Building level 14
[4] Building level 11
[1] Building level 12
Creating AMGLevel 
[0] Building level 11
Reconstruction on level 11
[4] Building level 12
[1] Building level 13
[4] Building level 13
Creating AMGLevel 
[0] Building level 12
Reconstruction on level 12
[1] Building level 14
[4] Building level 14
Creating AMGLevel 
[0] Building level 13
Reconstruction on level 13
Creating AMGLevel 
[0] Building level 14
Reconstruction on level 14
Creating AMGLevel 
14 Level construction complete
initial dot_x = 1.3173e+09
Iter #1 residual = 0.0180176
Iter #2 residual = 0.0118668
Iter #3 residual = 0.00990118
Iter #4 residual = 0.00695509
Iter #5 residual = 0.0130055
Iter #6 residual = 0.00899695
Iter #7 residual = 0.0387695
Iter #8 residual = 0.0272971
Iter #9 residual = 0.0239129
Iter #10 residual = 0.0135185
Iter #11 residual = 0.0098063
Iter #12 residual = 0.00697399
Iter #13 residual = 0.0061115
Iter #14 residual = 0.00442502
Iter #15 residual = 0.00583123
Iter #16 residual = 0.00494043
Iter #17 residual = 0.00582202
Iter #18 residual = 0.0048335
Iter #19 residual = 0.0106266
Iter #20 residual = 0.0122707
Iter #21 residual = 0.00711742
Iter #22 residual = 0.003431
Iter #23 residual = 0.00659377
Iter #24 residual = 0.0039808
Iter #25 residual = 0.0095915
Iter #26 residual = 0.00858344
Iter #27 residual = 0.00510241
Iter #28 residual = 0.00376592
Iter #29 residual = 0.00483331
Iter #30 residual = 0.00327798
Iter #31 residual = 0.0030556
Iter #32 residual = 0.00348799
Iter #33 residual = 0.00259077
Iter #34 residual = 0.0067488
Iter #35 residual = 0.00761027
Iter #36 residual = 0.00353418
Iter #37 residual = 0.00412928
Iter #38 residual = 0.00253428
Iter #39 residual = 0.00429707
Iter #40 residual = 0.00272997
Iter #41 residual = 0.0121014
Iter #42 residual = 0.006201
Iter #43 residual = 0.00340214
Iter #44 residual = 0.00495852
Iter #45 residual = 0.00270586
Iter #46 residual = 0.00527558
Iter #47 residual = 0.00445441
Iter #48 residual = 0.00296322
Iter #49 residual = 0.00179573
Iter #50 residual = 0.0041729
GPU: 50 iters: 10.4661 s: 2.08435 GB/s
GPUAMG:  Solving for pd, Initial residual = 0.013255, Final residual = 0.00346633, No Iterations 50
[4] Building level 0
[3] Building level 0
[0] Building level 0
[2] Building level 0
[1] Building level 0
[5] Building level 0
[4] Building level 1
[1] Building level 1
[5] Building level 1
[0] Building level 1
[2] Building level 1
[3] Building level 1
[4] Building level 2
[1] Building level 2
[2] Building level 2
[5] Building level 2
[0] Building level 2
[3] Building level 2
[4] Building level 3
[2] Building level 3
[5] Building level 3
[1] Building level 3
[3] Building level 3
[0] Building level 3
[4] Building level 4
[2] Building level 4
[3] Building level 4
[1] Building level 4
[5] Building level 4
[0] Building level 4
[4] Building level 5
[2] Building level 5
[3] Building level 5
[1] Building level 5
[5] Building level 5
[4] Building level 6
[2] Building level 6
[3] Building level 6
[0] Building level 5
[4] Building level 7
[1] Building level 6
[5] Building level 6
[4] Building level 8
[2] Building level 7
[3] Building level 7
[4] Building level 9
[4] Building level 10
[4] Building level 11
[4] Building level 12
[4] Building level 13
[4] Building level 14
[2] Building level 8
[3] Building level 8
[1] Building level 7
[2] Building level 9
[3] Building level 9
[5] Building level 7
[2] Building level 10
[3] Building level 10
[2] Building level 11
[3] Building level 11
[2] Building level 12
[3] Building level 12
[2] Building level 13
[3] Building level 13
[2] Building level 14
[3] Building level 14
[0] Building level 6
[1] Building level 8
[5] Building level 8
[1] Building level 9
[1] Building level 10
[5] Building level 9
[1] Building level 11
[1] Building level 12
[1] Building level 13
[1] Building level 14
[5] Building level 10
[5] Building level 11
[5] Building level 12
[5] Building level 13
[5] Building level 14
[0] Building level 7
[0] Building level 8
[0] Building level 9
[0] Building level 10
[0] Building level 11
[0] Building level 12
[0] Building level 13
[0] Building level 14
14 Level construction complete
initial dot_x = 7.0577e+08
Iter #1 residual = 0.00382458
Iter #2 residual = 0.00256997
Iter #3 residual = 0.00162351
Iter #4 residual = 0.0010697
Iter #5 residual = 0.000835905
Iter #6 residual = 0.0005497
GPU: 6 iters: 1.43257 s: 1.82735 GB/s
GPUAMG:  Solving for pd, Initial residual = 0.0107044, Final residual = 0.000490251, No Iterations 6
[4] Building level 0
[1] Building level 0
[5] Building level 0
[3] Building level 0
[0] Building level 0
[2] Building level 0
[4] Building level 1
[1] Building level 1
[5] Building level 1
[0] Building level 1
[3] Building level 1
[2] Building level 1
[4] Building level 2
[2] Building level 2
[1] Building level 2
[5] Building level 2
[0] Building level 2
[3] Building level 2
[4] Building level 3
[2] Building level 3
[5] Building level 3
[3] Building level 3
[1] Building level 3
[0] Building level 3
[4] Building level 4
[2] Building level 4
[3] Building level 4
[1] Building level 4
[5] Building level 4
[0] Building level 4
[4] Building level 5
[2] Building level 5
[3] Building level 5
[1] Building level 5
[5] Building level 5
[2] Building level 6
[4] Building level 6
[3] Building level 6
[4] Building level 7
[0] Building level 5
[2] Building level 7
[1] Building level 6
[4] Building level 8
[3] Building level 7
[5] Building level 6
[2] Building level 8
[4] Building level 9
[4] Building level 10
[2] Building level 9
[4] Building level 11
[4] Building level 12
[4] Building level 13
[4] Building level 14
[3] Building level 8
[2] Building level 10
[2] Building level 11
[2] Building level 12
[2] Building level 13
[2] Building level 14
[1] Building level 7
[3] Building level 9
[3] Building level 10
[3] Building level 11
[3] Building level 12
[5] Building level 7
[3] Building level 13
[3] Building level 14
[1] Building level 8
[0] Building level 6
[1] Building level 9
[5] Building level 8
[1] Building level 10
[1] Building level 11
[1] Building level 12
[1] Building level 13
[1] Building level 14
[5] Building level 9
[5] Building level 10
[5] Building level 11
[5] Building level 12
[5] Building level 13
[5] Building level 14
[0] Building level 7
[0] Building level 8
[0] Building level 9
[0] Building level 10
[0] Building level 11
[0] Building level 12
[0] Building level 13
[0] Building level 14
14 Level construction complete
initial dot_x = 6.76752e+08
Iter #1 residual = 0.00314817
Iter #2 residual = 0.00319163
Iter #3 residual = 0.00342533
Iter #4 residual = 0.00222173
Iter #5 residual = 0.00107681
Iter #6 residual = 0.000769442
Iter #7 residual = 0.00187856
Iter #8 residual = 0.00119653
Iter #9 residual = 0.0036999
Iter #10 residual = 0.00248485
Iter #11 residual = 0.00101536
Iter #12 residual = 0.000929958
Iter #13 residual = 0.000640583
Iter #14 residual = 0.000415707
Iter #15 residual = 0.000319865
Iter #16 residual = 0.000419502
Iter #17 residual = 0.000394933
Iter #18 residual = 0.00034394
Iter #19 residual = 0.000437247
Iter #20 residual = 0.000335149
Iter #21 residual = 0.000387255
Iter #22 residual = 0.000340694
Iter #23 residual = 0.000360795
Iter #24 residual = 0.000329104
Iter #25 residual = 0.000353596
Iter #26 residual = 0.000319412
Iter #27 residual = 0.000351204
Iter #28 residual = 0.00031697
Iter #29 residual = 0.000347642
Iter #30 residual = 0.000314472
Iter #31 residual = 0.000344512
Iter #32 residual = 0.000312321
Iter #33 residual = 0.000341449
Iter #34 residual = 0.000310345
Iter #35 residual = 0.00033835
Iter #36 residual = 0.000308433
Iter #37 residual = 0.000335269
Iter #38 residual = 0.000306423
Iter #39 residual = 0.000332492
Iter #40 residual = 0.000304304
Iter #41 residual = 0.000330221
Iter #42 residual = 0.000302323
Iter #43 residual = 0.000328262
Iter #44 residual = 0.000300483
Iter #45 residual = 0.000326405
Iter #46 residual = 0.0002987
Iter #47 residual = 0.000324518
Iter #48 residual = 0.000296935
Iter #49 residual = 0.000322605
Iter #50 residual = 0.000295182
GPU: 50 iters: 10.4661 s: 2.08436 GB/s
GPUAMG:  Solving for pd, Initial residual = 0.00788655, Final residual = 0.000320703, No Iterations 50
time step continuity errors : sum local = 1.94409e-08, global = -2.47804e-09, cumulative = -7.65485e-08
ExecutionTime = 327.15 s  ClockTime = 350 s

Courant Number mean: 2.45464e-05 max: 0.030773 velocity magnitude: 0.258909
Time = 0.006

MULES: Solving for alpha1
Liquid phase volume fraction = 0.00275429  Min(alpha1) = -5.79752e-32  Max(alpha1) = 1
MULES: Solving for alpha1
Liquid phase volume fraction = 0.00275429  Min(alpha1) = -2.90723e-30  Max(alpha1) = 1
[5] Building level 0
[2] Building level 0
[4] Building level 0
[3] Building level 0
[1] Building level 0
[0] Building level 0
[5] Building level 1
[4] Building level 1
[1] Building level 1
[3] Building level 1
[0] Building level 1
Reconstruction on level 1
[2] Building level 1
[4] Building level 2
[2] Building level 2
[3] Building level 2
[2] Building level 3
[3] Building level 3
[2] Building level 4
[3] Building level 4
[4] Building level 3
[2] Building level 5
[3] Building level 5
Creating AMGLevel 
[0] Building level 2
Reconstruction on level 2
[1] Building level 2
[5] Building level 2
[2] Building level 6
[3] Building level 6
[4] Building level 4
[3] Building level 7
[2] Building level 7
[2] Building level 8
[3] Building level 8
[3] Building level 9
[2] Building level 9
[3] Building level 10
[2] Building level 10
[3] Building level 11
[2] Building level 11
[3] Building level 12
[3] Building level 13
[2] Building level 12
[3] Building level 14
[2] Building level 13
[2] Building level 14
[4] Building level 5
Creating AMGLevel 
[0] Building level 3
Reconstruction on level 3
[1] Building level 3
[5] Building level 3
[4] Building level 6
[4] Building level 7
[4] Building level 8
[4] Building level 9
[4] Building level 10
[4] Building level 11
[4] Building level 12
[4] Building level 13
[4] Building level 14
Creating AMGLevel 
[0] Building level 4
Reconstruction on level 4
[1] Building level 4
[5] Building level 4
Creating AMGLevel 
[1] Building level 5
[0] Building level 5
Reconstruction on level 5
[5] Building level 5
[1] Building level 6
Creating AMGLevel 
[0] Building level 6
Reconstruction on level 6
[5] Building level 6
Creating AMGLevel 
[1] Building level 7
[0] Building level 7
Reconstruction on level 7
[5] Building level 7
[1] Building level 8
Creating AMGLevel 
[0] Building level 8
Reconstruction on level 8
[5] Building level 8
[1] Building level 9
Creating AMGLevel 
[0] Building level 9
Reconstruction on level 9
[5] Building level 9
[1] Building level 10
Creating AMGLevel 
[0] Building level 10
Reconstruction on level 10
[5] Building level 10
[1] Building level 11
Creating AMGLevel 
[0] Building level 11
Reconstruction on level 11
[1] Building level 12
[5] Building level 11
Creating AMGLevel 
[0] Building level 12
Reconstruction on level 12
[1] Building level 13
Creating AMGLevel 
[5] Building level 12
[0] Building level 13
Reconstruction on level 13
[1] Building level 14
Creating AMGLevel 
[0] Building level 14
Reconstruction on level 14
[5] Building level 13
Creating AMGLevel 
14 Level construction complete
[5] Building level 14
initial dot_x = 9.42012e+08
Iter #1 residual = 0.0281075
Iter #2 residual = 0.0159205
Iter #3 residual = 0.00713189
Iter #4 residual = 0.00565705
Iter #5 residual = 0.00536138
Iter #6 residual = 0.00475199
Iter #7 residual = 0.00520087
Iter #8 residual = 0.00466556
Iter #9 residual = 0.00471193
Iter #10 residual = 0.00476176
Iter #11 residual = 0.0114599
Iter #12 residual = 0.0067643
Iter #13 residual = 0.00845619
Iter #14 residual = 0.00670651
Iter #15 residual = 0.0058331
Iter #16 residual = 0.00445946
Iter #17 residual = 0.00628386
Iter #18 residual = 0.0036648
Iter #19 residual = 0.00796486
Iter #20 residual = 0.00474053
Iter #21 residual = 0.00328977
Iter #22 residual = 0.00197654
Iter #23 residual = 0.0015067
Iter #24 residual = 0.000991771
Iter #25 residual = 0.00093591
Iter #26 residual = 0.001429
Iter #27 residual = 0.000813446
GPU: 27 iters: 6.1028 s: 1.93028 GB/s
GPUAMG:  Solving for pd, Initial residual = 0.0141314, Final residual = 0.00068799, No Iterations 27
[1] Building level 0
[0] Building level 0
[5] Building level 0
[2] Building level 0
[3] Building level 0
[4] Building level 0
[1] Building level 1
[4] Building level 1
[5] Building level 1
[0] Building level 1
[2] Building level 1
[3] Building level 1
[4] Building level 2
[1] Building level 2
[5] Building level 2
[2] Building level 2
[0] Building level 2
[3] Building level 2
[4] Building level 3
[1] Building level 3
[2] Building level 3
[5] Building level 3
[3] Building level 3
[0] Building level 3
[2] Building level 4
[4] Building level 4
[1] Building level 4
[3] Building level 4
[5] Building level 4
[0] Building level 4
[2] Building level 5
[4] Building level 5
[1] Building level 5
[3] Building level 5
[5] Building level 5
[0] Building level 5
[2] Building level 6
[4] Building level 6
[1] Building level 6
[2] Building level 7
[3] Building level 6
[5] Building level 6
[4] Building level 7
[1] Building level 7
[0] Building level 6
[2] Building level 8
[2] Building level 9
[4] Building level 8
[1] Building level 8
[2] Building level 10
[2] Building level 11
[3] Building level 7
[2] Building level 12
[2] Building level 13
[2] Building level 14
[4] Building level 9
[1] Building level 9
[4] Building level 10
[5] Building level 7
[1] Building level 10
[0] Building level 7
[4] Building level 11
[1] Building level 11
[4] Building level 12
[4] Building level 13
[1] Building level 12
[4] Building level 14
[1] Building level 13
[1] Building level 14
[3] Building level 8
[5] Building level 8
[3] Building level 9
[0] Building level 8
[3] Building level 10
[5] Building level 9
[3] Building level 11
[3] Building level 12
[0] Building level 9
[3] Building level 13
[3] Building level 14
[5] Building level 10
[5] Building level 11
[0] Building level 10
[5] Building level 12
[5] Building level 13
[0] Building level 11
[5] Building level 14
[0] Building level 12
[0] Building level 13
[0] Building level 14
14 Level construction complete
initial dot_x = 3.58088e+08
Iter #1 residual = 0.00289883
Iter #2 residual = 0.00201218
Iter #3 residual = 0.00127326
Iter #4 residual = 0.00132597
Iter #5 residual = 0.000801419
Iter #6 residual = 0.000678851
Iter #7 residual = 0.000472303
Iter #8 residual = 0.000560982
Iter #9 residual = 0.000388688
Iter #10 residual = 0.000550581
Iter #11 residual = 0.000363392
Iter #12 residual = 0.000984492
Iter #13 residual = 0.000625971
Iter #14 residual = 0.000393005
GPU: 14 iters: 3.28172 s: 1.86128 GB/s
GPUAMG:  Solving for pd, Initial residual = 0.00664233, Final residual = 0.0002311, No Iterations 14
[0] Building level 0
[1] Building level 0
[3] Building level 0
[2] Building level 0
[4] Building level 0
[5] Building level 0
[5] Building level 1
[4] Building level 1
[1] Building level 1
[2] Building level 1
[3] Building level 1
[0] Building level 1
[4] Building level 2
[1] Building level 2
[2] Building level 2
[5] Building level 2
[0] Building level 2
[3] Building level 2
[4] Building level 3
[2] Building level 3
[1] Building level 3
[5] Building level 3
[3] Building level 3
[0] Building level 3
[2] Building level 4
[4] Building level 4
[1] Building level 4
[3] Building level 4
[5] Building level 4
[0] Building level 4
[2] Building level 5
[4] Building level 5
[1] Building level 5
[3] Building level 5
[5] Building level 5
[2] Building level 6
[0] Building level 5
[4] Building level 6
[1] Building level 6
[2] Building level 7
[2] Building level 8
[3] Building level 6
[5] Building level 6
[4] Building level 7
[2] Building level 9
[2] Building level 10
[2] Building level 11
[0] Building level 6
[1] Building level 7
[2] Building level 12
[2] Building level 13
[2] Building level 14
[4] Building level 8
[3] Building level 7
[1] Building level 8
[4] Building level 9
[5] Building level 7
[4] Building level 10
[4] Building level 11
[4] Building level 12
[1] Building level 9
[4] Building level 13
[4] Building level 14
[0] Building level 7
[1] Building level 10
[1] Building level 11
[3] Building level 8
[1] Building level 12
[1] Building level 13
[1] Building level 14
[5] Building level 8
[3] Building level 9
[0] Building level 8
[5] Building level 9
[3] Building level 10
[3] Building level 11
[3] Building level 12
[5] Building level 10
[3] Building level 13
[3] Building level 14
[5] Building level 11
[0] Building level 9
[5] Building level 12
[5] Building level 13
[5] Building level 14
[0] Building level 10
[0] Building level 11
[0] Building level 12
[0] Building level 13
[0] Building level 14
14 Level construction complete
initial dot_x = 2.02271e+08
Iter #1 residual = 0.00371791
Iter #2 residual = 0.00290528
Iter #3 residual = 0.0021371
Iter #4 residual = 0.00114488
Iter #5 residual = 0.00463231
Iter #6 residual = 0.00303484
Iter #7 residual = 0.00105499
Iter #8 residual = 0.00238402
Iter #9 residual = 0.00156857
Iter #10 residual = 0.00125132
Iter #11 residual = 0.000732493
Iter #12 residual = 0.000871109
Iter #13 residual = 0.000458155
Iter #14 residual = 0.00056081
Iter #15 residual = 0.00035161
Iter #16 residual = 0.00031685
Iter #17 residual = 0.000443609
Iter #18 residual = 0.000232202
Iter #19 residual = 0.000334369
Iter #20 residual = 0.000183744
Iter #21 residual = 0.00016427
Iter #22 residual = 0.000231534
Iter #23 residual = 0.000281231
Iter #24 residual = 0.000169201
Iter #25 residual = 0.00016004
Iter #26 residual = 0.000100635
Iter #27 residual = 4.92458e-05
Iter #28 residual = 0.000114069
Iter #29 residual = 6.48224e-05
Iter #30 residual = 9.88651e-05
Iter #31 residual = 6.70313e-05
Iter #32 residual = 2.93595e-05
Iter #33 residual = 4.07398e-05
Iter #34 residual = 2.39886e-05
Iter #35 residual = 1.93449e-05
Iter #36 residual = 1.97303e-05
Iter #37 residual = 3.6377e-05
Iter #38 residual = 2.1934e-05
Iter #39 residual = 5.40914e-05
Iter #40 residual = 2.75269e-05
Iter #41 residual = 2.30662e-05
Iter #42 residual = 9.86076e-06
Iter #43 residual = 1.32775e-05
Iter #44 residual = 1.38433e-05
Iter #45 residual = 7.21156e-06
Iter #46 residual = 1.33218e-05
Iter #47 residual = 9.33259e-06
Iter #48 residual = 7.90139e-06
Iter #49 residual = 4.67744e-06
Iter #50 residual = 6.72515e-06
GPU: 50 iters: 11.1688 s: 1.95321 GB/s
GPUAMG:  Solving for pd, Initial residual = 0.00656555, Final residual = 3.53222e-06, No Iterations 50
time step continuity errors : sum local = 1.81333e-10, global = 1.21535e-11, cumulative = -7.65364e-08
ExecutionTime = 384.84 s  ClockTime = 409 s

Courant Number mean: 2.93066e-05 max: 0.0128117 velocity magnitude: 0.119406
Time = 0.007

MULES: Solving for alpha1
Liquid phase volume fraction = 0.00275429  Min(alpha1) = -3.42383e-30  Max(alpha1) = 1
MULES: Solving for alpha1
Liquid phase volume fraction = 0.00275429  Min(alpha1) = -1.16081e-30  Max(alpha1) = 1
[3] Building level 0
[2] Building level 0
[1] Building level 0
[4] Building level 0
[0] Building level 0
[5] Building level 0
[5] Building level 1
[4] Building level 1
[1] Building level 1
[3] Building level 1
[0] Building level 1
Reconstruction on level 1
[2] Building level 1
[2] Building level 2
[3] Building level 2
[2] Building level 3
[3] Building level 3
[2] Building level 4
[3] Building level 4
[2] Building level 5
[3] Building level 5
Creating AMGLevel 
[4] Building level 2
[0] Building level 2
Reconstruction on level 2
[1] Building level 2
[5] Building level 2
[2] Building level 6
[3] Building level 6
[3] Building level 7
[2] Building level 7
[3] Building level 8
[2] Building level 8
[3] Building level 9
[2] Building level 9
[3] Building level 10
[2] Building level 10
[3] Building level 11
[3] Building level 12
[2] Building level 11
[3] Building level 13
[2] Building level 12
[3] Building level 14
[2] Building level 13
[2] Building level 14
Creating AMGLevel 
[0] Building level 3
Reconstruction on level 3
[4] Building level 3
[1] Building level 3
[5] Building level 3
Creating AMGLevel 
[0] Building level 4
Reconstruction on level 4
[4] Building level 4
[1] Building level 4
[5] Building level 4
Creating AMGLevel 
[0] Building level 5
Reconstruction on level 5
[4] Building level 5
[1] Building level 5
[5] Building level 5
[4] Building level 6
Creating AMGLevel 
[0] Building level 6
Reconstruction on level 6
[1] Building level 6
[5] Building level 6
[4] Building level 7
Creating AMGLevel 
[0] Building level 7
Reconstruction on level 7
[1] Building level 7
[5] Building level 7
[4] Building level 8
Creating AMGLevel 
[0] Building level 8
Reconstruction on level 8
[1] Building level 8
[5] Building level 8
[4] Building level 9
Creating AMGLevel 
[0] Building level 9
Reconstruction on level 9
[1] Building level 9
[5] Building level 9
[4] Building level 10
[4] Building level 11
Creating AMGLevel 
[0] Building level 10
Reconstruction on level 10
[1] Building level 10
[4] Building level 12
[5] Building level 10
Creating AMGLevel 
[0] Building level 11
Reconstruction on level 11
[4] Building level 13
[1] Building level 11
[5] Building level 11
[4] Building level 14
Creating AMGLevel 
[0] Building level 12
Reconstruction on level 12
[1] Building level 12
[5] Building level 12
Creating AMGLevel 
[0] Building level 13
Reconstruction on level 13
[1] Building level 13
Creating AMGLevel 
[5] Building level 13
[0] Building level 14
Reconstruction on level 14
[1] Building level 14
Creating AMGLevel 
[5] Building level 14
14 Level construction complete
initial dot_x = 6.20403e+08
Iter #1 residual = 0.0168755
Iter #2 residual = 0.00850027
Iter #3 residual = 0.00782478
Iter #4 residual = 0.00510636
Iter #5 residual = 0.00320195
Iter #6 residual = 0.00502718
Iter #7 residual = 0.00398209
Iter #8 residual = 0.00668906
Iter #9 residual = 0.00592357
Iter #10 residual = 0.00468726
Iter #11 residual = 0.0036918
Iter #12 residual = 0.00362924
Iter #13 residual = 0.00350182
Iter #14 residual = 0.00442734
Iter #15 residual = 0.00404806
Iter #16 residual = 0.00392702
Iter #17 residual = 0.00697747
Iter #18 residual = 0.00382941
Iter #19 residual = 0.0192581
Iter #20 residual = 0.0121642
Iter #21 residual = 0.00372508
Iter #22 residual = 0.00226491
Iter #23 residual = 0.00265825
Iter #24 residual = 0.00187015
Iter #25 residual = 0.00625812
Iter #26 residual = 0.00436788
Iter #27 residual = 0.00372936
Iter #28 residual = 0.003916
Iter #29 residual = 0.00205486
Iter #30 residual = 0.00150669
Iter #31 residual = 0.00219565
Iter #32 residual = 0.0011616
Iter #33 residual = 0.000885666
Iter #34 residual = 0.000819813
GPU: 34 iters: 7.52163 s: 1.97221 GB/s
GPUAMG:  Solving for pd, Initial residual = 0.0136615, Final residual = 0.000622824, No Iterations 34
[4] Building level 0
[1] Building level 0
[2] Building level 0
[3] Building level 0
[5] Building level 0
[0] Building level 0
[1] Building level 1
[4] Building level 1
[5] Building level 1
[0] Building level 1
[2] Building level 1
[3] Building level 1
[4] Building level 2
[1] Building level 2
[5] Building level 2
[0] Building level 2
[2] Building level 2
[3] Building level 2
[4] Building level 3
[1] Building level 3
[2] Building level 3
[0] Building level 3
[5] Building level 3
[3] Building level 3
[2] Building level 4
[4] Building level 4
[1] Building level 4
[0] Building level 4
[5] Building level 4
[3] Building level 4
[2] Building level 5
[4] Building level 5
[1] Building level 5
[0] Building level 5
[3] Building level 5
[5] Building level 5
[2] Building level 6
[4] Building level 6
[1] Building level 6
[0] Building level 6
[3] Building level 6
[2] Building level 7
[4] Building level 7
[5] Building level 6
[1] Building level 7
[4] Building level 8
[2] Building level 8
[0] Building level 7
[1] Building level 8
[4] Building level 9
[2] Building level 9
[3] Building level 7
[2] Building level 10
[4] Building level 10
[1] Building level 9
[4] Building level 11
[2] Building level 11
[4] Building level 12
[2] Building level 12
[4] Building level 13
[2] Building level 13
[4] Building level 14
[2] Building level 14
[5] Building level 7
[1] Building level 10
[1] Building level 11
[0] Building level 8
[1] Building level 12
[1] Building level 13
[1] Building level 14
[3] Building level 8
[0] Building level 9
[5] Building level 8
[3] Building level 9
[0] Building level 10
[0] Building level 11
[3] Building level 10
[0] Building level 12
[0] Building level 13
[0] Building level 14
14 Level construction complete
[3] Building level 11
[3] Building level 12
[5] Building level 9
[3] Building level 13
[3] Building level 14
[5] Building level 10
[5] Building level 11
[5] Building level 12
[5] Building level 13
[5] Building level 14
initial dot_x = 2.14313e+08
Iter #1 residual = 0.00531503
Iter #2 residual = 0.00323325
Iter #3 residual = 0.00129194
Iter #4 residual = 0.000885822
Iter #5 residual = 0.000719876
Iter #6 residual = 0.000621062
Iter #7 residual = 0.000609287
Iter #8 residual = 0.000539311
Iter #9 residual = 0.000621225
Iter #10 residual = 0.000590967
Iter #11 residual = 0.00051194
Iter #12 residual = 0.000693615
Iter #13 residual = 0.000470216
Iter #14 residual = 0.00116257
Iter #15 residual = 0.000781902
Iter #16 residual = 0.000887687
Iter #17 residual = 0.00080141
Iter #18 residual = 0.000577516
Iter #19 residual = 0.000436267
Iter #20 residual = 0.000531407
Iter #21 residual = 0.000429318
Iter #22 residual = 0.00122423
Iter #23 residual = 0.00106618
GPU: 23 iters: 5.14242 s: 1.9514 GB/s
GPUAMG:  Solving for pd, Initial residual = 0.0065844, Final residual = 0.000323371, No Iterations 23
[5] Building level 0
[2] Building level 0
[1] Building level 0
[4] Building level 0
[0] Building level 0
[3] Building level 0
[5] Building level 1
[4] Building level 1
[1] Building level 1
[2] Building level 1
[3] Building level 1
[0] Building level 1
[4] Building level 2
[1] Building level 2
[2] Building level 2
[5] Building level 2
[0] Building level 2
[3] Building level 2
[4] Building level 3
[2] Building level 3
[1] Building level 3
[5] Building level 3
[0] Building level 3
[3] Building level 3
[2] Building level 4
[4] Building level 4
[1] Building level 4
[0] Building level 4
[5] Building level 4
[3] Building level 4
[2] Building level 5
[4] Building level 5
[1] Building level 5
[0] Building level 5
[5] Building level 5
[3] Building level 5
[2] Building level 6
[4] Building level 6
[1] Building level 6
[2] Building level 7
[0] Building level 6
[2] Building level 8
[3] Building level 6
[4] Building level 7
[1] Building level 7
[5] Building level 6
[2] Building level 9
[2] Building level 10
[2] Building level 11
[4] Building level 8
[2] Building level 12
[2] Building level 13
[2] Building level 14
[1] Building level 8
[4] Building level 9
[0] Building level 7
[4] Building level 10
[1] Building level 9
[3] Building level 7
[4] Building level 11
[4] Building level 12
[4] Building level 13
[4] Building level 14
[1] Building level 10
[1] Building level 11
[1] Building level 12
[5] Building level 7
[1] Building level 13
[1] Building level 14
[0] Building level 8
[3] Building level 8
[0] Building level 9
[5] Building level 8
[3] Building level 9
[0] Building level 10
[0] Building level 11
[0] Building level 12
[0] Building level 13
[3] Building level 10
[0] Building level 14
14 Level construction complete
[5] Building level 9
[3] Building level 11
[3] Building level 12
[3] Building level 13
[3] Building level 14
[5] Building level 10
[5] Building level 11
[5] Building level 12
[5] Building level 13
[5] Building level 14
initial dot_x = 5.02415e+08
Iter #1 residual = 0.000596664
Iter #2 residual = 0.00109615
Iter #3 residual = 0.00089209
Iter #4 residual = 0.000231744
Iter #5 residual = 0.000320073
Iter #6 residual = 0.000255357
Iter #7 residual = 0.000160307
Iter #8 residual = 9.9708e-05
Iter #9 residual = 6.34069e-05
Iter #10 residual = 7.35186e-05
Iter #11 residual = 6.64523e-05
Iter #12 residual = 6.716e-05
Iter #13 residual = 6.25517e-05
Iter #14 residual = 0.000109944
Iter #15 residual = 7.44863e-05
Iter #16 residual = 0.000121913
Iter #17 residual = 0.000250143
Iter #18 residual = 0.000129134
Iter #19 residual = 8.66278e-05
Iter #20 residual = 0.000171958
Iter #21 residual = 0.000116817
Iter #22 residual = 6.51028e-05
Iter #23 residual = 3.97932e-05
Iter #24 residual = 8.27013e-05
Iter #25 residual = 4.55932e-05
Iter #26 residual = 4.04931e-05
Iter #27 residual = 2.2348e-05
Iter #28 residual = 1.42158e-05
Iter #29 residual = 1.1251e-05
Iter #30 residual = 1.74745e-05
Iter #31 residual = 1.2959e-05
Iter #32 residual = 3.13556e-05
Iter #33 residual = 1.99571e-05
Iter #34 residual = 3.1235e-05
Iter #35 residual = 1.85633e-05
Iter #36 residual = 6.73098e-06
Iter #37 residual = 8.62858e-06
Iter #38 residual = 6.94026e-06
Iter #39 residual = 1.03115e-05
Iter #40 residual = 7.98839e-06
Iter #41 residual = 1.45458e-05
Iter #42 residual = 9.26826e-06
Iter #43 residual = 1.4449e-05
Iter #44 residual = 1.41459e-05
Iter #45 residual = 8.1971e-06
Iter #46 residual = 6.82145e-06
Iter #47 residual = 6.11935e-06
Iter #48 residual = 1.46584e-05
Iter #49 residual = 8.76465e-06
Iter #50 residual = 1.09528e-05
GPU: 50 iters: 10.9301 s: 1.99586 GB/s
GPUAMG:  Solving for pd, Initial residual = 0.00612834, Final residual = 8.35591e-06, No Iterations 50
time step continuity errors : sum local = 5.5345e-10, global = 1.42211e-10, cumulative = -7.63941e-08
ExecutionTime = 445.45 s  ClockTime = 471 s

Courant Number mean: 3.43995e-05 max: 0.00834908 velocity magnitude: 0.130454
Time = 0.008

MULES: Solving for alpha1
Liquid phase volume fraction = 0.00275429  Min(alpha1) = -1.65907e-30  Max(alpha1) = 1
MULES: Solving for alpha1
Liquid phase volume fraction = 0.00275429  Min(alpha1) = -4.43823e-30  Max(alpha1) = 1
[5] Building level 0
[3] Building level 0
[0] Building level 0
[4] Building level 0
[2] Building level 0
[1] Building level 0
[5] Building level 1
[4] Building level 1
[1] Building level 1
[3] Building level 1
[0] Building level 1
Reconstruction on level 1
[2] Building level 1
[1] Building level 2
[4] Building level 2
[2] Building level 2
[3] Building level 2
[2] Building level 3
[3] Building level 3
[2] Building level 4
[3] Building level 4
[1] Building level 3
[4] Building level 3
[2] Building level 5
[3] Building level 5
Creating AMGLevel 
[0] Building level 2
Reconstruction on level 2
[5] Building level 2
[2] Building level 6
[3] Building level 6
[1] Building level 4
[4] Building level 4
[3] Building level 7
[2] Building level 7
[2] Building level 8
[3] Building level 8
[2] Building level 9
[3] Building level 9
[2] Building level 10
[3] Building level 10
[2] Building level 11
[3] Building level 11
[2] Building level 12
[3] Building level 12
[2] Building level 13
[3] Building level 13
[2] Building level 14
[3] Building level 14
[1] Building level 5
[4] Building level 5
Creating AMGLevel 
[0] Building level 3
Reconstruction on level 3
[5] Building level 3
[1] Building level 6
[4] Building level 6
[1] Building level 7
[4] Building level 7
[1] Building level 8
[4] Building level 8
[...]
[0] Building level 0
[3] Building level 0
[2] Building level 0
[5] Building level 0
[1] Building level 0
[4] Building level 0
[5] Building level 1
[4] Building level 1
[1] Building level 1
[3] Building level 1
[2] Building level 1
[0] Building level 1
Reconstruction on level 1
[1] Building level 2
[2] Building level 2
[3] Building level 2
[2] Building level 3
[3] Building level 3
[3] Building level 4
[2] Building level 4
[1] Building level 3
[2] Building level 5
[3] Building level 5
Creating AMGLevel 
[4] Building level 2
[0] Building level 2
Reconstruction on level 2
[5] Building level 2
[1] Building level 4
[2] Building level 6
[3] Building level 6
[3] Building level 7
[2] Building level 7
[3] Building level 8
[2] Building level 8
[3] Building level 9
[2] Building level 9
[2] Building level 10
[3] Building level 10
[2] Building level 11
[3] Building level 11
[3] Building level 12
[2] Building level 12
[3] Building level 13
[1] Building level 5
[2] Building level 13
[3] Building level 14
[2] Building level 14
Creating AMGLevel 
[4] Building level 3
[0] Building level 3
Reconstruction on level 3
[5] Building level 3
[1] Building level 6
[1] Building level 7
[1] Building level 8
[1] Building level 9
[1] Building level 10
[1] Building level 11
[1] Building level 12
[1] Building level 13
[1] Building level 14
Creating AMGLevel 
[0] Building level 4
Reconstruction on level 4
[4] Building level 4
[5] Building level 4
Creating AMGLevel 
[0] Building level 5
Reconstruction on level 5
[4] Building level 5
[5] Building level 5
Creating AMGLevel 
[0] Building level 6
Reconstruction on level 6
[4] Building level 6
[5] Building level 6
[4] Building level 7
Creating AMGLevel 
[0] Building level 7
Reconstruction on level 7
[5] Building level 7
[4] Building level 8
Creating AMGLevel 
[0] Building level 8
Reconstruction on level 8
[5] Building level 8
[4] Building level 9
Creating AMGLevel 
[0] Building level 9
Reconstruction on level 9
[5] Building level 9
[4] Building level 10
Creating AMGLevel 
[0] Building level 10
Reconstruction on level 10
[5] Building level 10
[4] Building level 11
Creating AMGLevel 
[0] Building level 11
Reconstruction on level 11
[5] Building level 11
[4] Building level 12
Creating AMGLevel 
[0] Building level 12
Reconstruction on level 12
[4] Building level 13
[5] Building level 12
Creating AMGLevel 
[0] Building level 13
Reconstruction on level 13
[4] Building level 14
Creating AMGLevel 
[0] Building level 14
Reconstruction on level 14
[5] Building level 13
Creating AMGLevel 
14 Level construction complete
[5] Building level 14
initial dot_x = 3.14449e+08
Iter #1 residual = 0.0167619
Iter #2 residual = 0.00828549
Iter #3 residual = 0.00526468
Iter #4 residual = 0.00566795
Iter #5 residual = 0.00752901
Iter #6 residual = 0.00442143
Iter #7 residual = 0.0109403
Iter #8 residual = 0.00932755
Iter #9 residual = 0.00349651
Iter #10 residual = 0.00335621
Iter #11 residual = 0.00678107
Iter #12 residual = 0.00692854
Iter #13 residual = 0.00241467
Iter #14 residual = 0.00628089
Iter #15 residual = 0.00272734
Iter #16 residual = 0.00434008
Iter #17 residual = 0.00333981
Iter #18 residual = 0.00508353
Iter #19 residual = 0.00244222
Iter #20 residual = 0.00228526
Iter #21 residual = 0.00474302
Iter #22 residual = 0.00216399
Iter #23 residual = 0.00209125
Iter #24 residual = 0.00418765
Iter #25 residual = 0.00189483
Iter #26 residual = 0.00221318
Iter #27 residual = 0.00230923
Iter #28 residual = 0.0023052
Iter #29 residual = 0.00111185
Iter #30 residual = 0.00243254
Iter #31 residual = 0.00118316
Iter #32 residual = 0.00175393
Iter #33 residual = 0.00124532
Iter #34 residual = 0.00122647
Iter #35 residual = 0.000756436
Iter #36 residual = 0.00269125
Iter #37 residual = 0.00121718
Iter #38 residual = 0.00166875
Iter #39 residual = 0.00246001
Iter #40 residual = 0.00199271
GPU: 40 iters: 9.01193 s: 1.93655 GB/s
GPUAMG:  Solving for pd, Initial residual = 0.0139188, Final residual = 0.000643082, No Iterations 40
[0] Building level 0
[1] Building level 0
[5] Building level 0
[3] Building level 0
[2] Building level 0
[4] Building level 0
[4] Building level 1
[5] Building level 1
[1] Building level 1
[0] Building level 1
[2] Building level 1
[3] Building level 1
[4] Building level 2
[1] Building level 2
[5] Building level 2
[2] Building level 2
[0] Building level 2
[3] Building level 2
[4] Building level 3
[1] Building level 3
[2] Building level 3
[5] Building level 3
[3] Building level 3
[0] Building level 3
[1] Building level 4
[4] Building level 4
[2] Building level 4
[3] Building level 4
[5] Building level 4
[0] Building level 4
[1] Building level 5
[4] Building level 5
[2] Building level 5
[3] Building level 5
[5] Building level 5
[1] Building level 6
[0] Building level 5
[4] Building level 6
[2] Building level 6
[1] Building level 7
[3] Building level 6
[4] Building level 7
[1] Building level 8
[2] Building level 7
[4] Building level 8
[1] Building level 9
[5] Building level 6
[1] Building level 10
[0] Building level 6
[4] Building level 9
[1] Building level 11
[1] Building level 12
[3] Building level 7
[1] Building level 13
[1] Building level 14
[2] Building level 8
[4] Building level 10
[4] Building level 11
[4] Building level 12
[4] Building level 13
[4] Building level 14
[2] Building level 9
[2] Building level 10
[3] Building level 8
[2] Building level 11
[2] Building level 12
[2] Building level 13
[2] Building level 14
[5] Building level 7
[3] Building level 9
[0] Building level 7
[3] Building level 10
[3] Building level 11
[3] Building level 12
[3] Building level 13
[3] Building level 14
[5] Building level 8
[0] Building level 8
[5] Building level 9
[5] Building level 10
[5] Building level 11
[0] Building level 9
[5] Building level 12
[5] Building level 13
[5] Building level 14
[0] Building level 10
[0] Building level 11
[0] Building level 12
[0] Building level 13
[0] Building level 14
14 Level construction complete
initial dot_x = 1.2367e+08
Iter #1 residual = 0.00188722
Iter #2 residual = 0.00173324
Iter #3 residual = 0.00172171
Iter #4 residual = 0.00077481
Iter #5 residual = 0.00135044
Iter #6 residual = 0.0014107
Iter #7 residual = 0.000936461
Iter #8 residual = 0.000461874
Iter #9 residual = 0.000936873
Iter #10 residual = 0.000931473
Iter #11 residual = 0.000563063
Iter #12 residual = 0.000597309
GPU: 12 iters: 2.85137 s: 1.83618 GB/s
GPUAMG:  Solving for pd, Initial residual = 0.0066521, Final residual = 0.000260756, No Iterations 12
[4] Building level 0
[2] Building level 0
[1] Building level 0
[0] Building level 0
[3] Building level 0
[5] Building level 0
[5] Building level 1
[1] Building level 1
[4] Building level 1
[3] Building level 1
[2] Building level 1
[0] Building level 1
[1] Building level 2
[4] Building level 2
[2] Building level 2
[5] Building level 2
[0] Building level 2
[3] Building level 2
[1] Building level 3
[4] Building level 3
[2] Building level 3
[5] Building level 3
[3] Building level 3
[0] Building level 3
[1] Building level 4
[2] Building level 4
[4] Building level 4
[3] Building level 4
[0] Building level 4
[5] Building level 4
[1] Building level 5
[2] Building level 5
[4] Building level 5
[3] Building level 5
[1] Building level 6
[5] Building level 5
[0] Building level 5
[2] Building level 6
[4] Building level 6
[1] Building level 7
[3] Building level 6
[1] Building level 8
[2] Building level 7
[4] Building level 7
[1] Building level 9
[1] Building level 10
[1] Building level 11
[2] Building level 8
[1] Building level 12
[0] Building level 6
[1] Building level 13
[1] Building level 14
[4] Building level 8
[3] Building level 7
[5] Building level 6
[2] Building level 9
[4] Building level 9
[2] Building level 10
[2] Building level 11
[4] Building level 10
[2] Building level 12
[4] Building level 11
[2] Building level 13
[2] Building level 14
[4] Building level 12
[4] Building level 13
[4] Building level 14
[3] Building level 8
[3] Building level 9
[0] Building level 7
[5] Building level 7
[3] Building level 10
[3] Building level 11
[3] Building level 12
[3] Building level 13
[3] Building level 14
[0] Building level 8
[5] Building level 8
[0] Building level 9
[5] Building level 9
[0] Building level 10
[5] Building level 10
[0] Building level 11
[0] Building level 12
[5] Building level 11
[0] Building level 13
[0] Building level 14
14 Level construction complete
[5] Building level 12
[5] Building level 13
[5] Building level 14
initial dot_x = 1.64649e+08
Iter #1 residual = 0.00109013
Iter #2 residual = 0.00117428
Iter #3 residual = 0.000471954
Iter #4 residual = 0.000568365
Iter #5 residual = 0.000372381
Iter #6 residual = 0.000859785
Iter #7 residual = 0.000896629
Iter #8 residual = 0.000737075
Iter #9 residual = 0.000324897
Iter #10 residual = 0.000537973
Iter #11 residual = 0.000551099
Iter #12 residual = 0.00025531
Iter #13 residual = 0.000342957
Iter #14 residual = 0.000507711
Iter #15 residual = 0.000666135
Iter #16 residual = 0.000233859
Iter #17 residual = 0.000465974
Iter #18 residual = 0.000938579
Iter #19 residual = 0.000404898
Iter #20 residual = 0.000274646
Iter #21 residual = 0.000178944
Iter #22 residual = 0.000255124
Iter #23 residual = 0.000262755
Iter #24 residual = 0.00020276
Iter #25 residual = 0.000136966
Iter #26 residual = 0.000223262
Iter #27 residual = 0.00026683
Iter #28 residual = 0.000202931
Iter #29 residual = 0.00011886
Iter #30 residual = 0.000226189
Iter #31 residual = 0.000216547
Iter #32 residual = 0.000165238
Iter #33 residual = 8.7095e-05
Iter #34 residual = 0.00012639
Iter #35 residual = 7.74928e-05
Iter #36 residual = 0.000195525
Iter #37 residual = 0.000157181
Iter #38 residual = 0.000122453
Iter #39 residual = 9.56184e-05
Iter #40 residual = 0.000110239
Iter #41 residual = 8.4693e-05
Iter #42 residual = 0.0001224
Iter #43 residual = 9.29427e-05
Iter #44 residual = 0.000113295
Iter #45 residual = 8.67177e-05
Iter #46 residual = 8.98505e-05
Iter #47 residual = 0.000160875
Iter #48 residual = 8.70435e-05
Iter #49 residual = 0.000114992
Iter #50 residual = 5.87431e-05
GPU: 50 iters: 11.2001 s: 1.94775 GB/s
GPUAMG:  Solving for pd, Initial residual = 0.00621737, Final residual = 0.000149723, No Iterations 50
time step continuity errors : sum local = 7.13542e-09, global = 2.62069e-12, cumulative = -7.62352e-08
ExecutionTime = 564.03 s  ClockTime = 593 s

Courant Number mean: 4.46186e-05 max: 0.00971297 velocity magnitude: 0.149363
Time = 0.01

MULES: Solving for alpha1
Liquid phase volume fraction = 0.00275429  Min(alpha1) = -1.47655e-29  Max(alpha1) = 1
MULES: Solving for alpha1
Liquid phase volume fraction = 0.00275429  Min(alpha1) = -2.70144e-29  Max(alpha1) = 1
[4] Building level 0
[2] Building level 0
[3] Building level 0
[5] Building level 0
[0] Building level 0
[1] Building level 0
[5] Building level 1
[4] Building level 1
[1] Building level 1
[3] Building level 1
[0] Building level 1
Reconstruction on level 1
[2] Building level 1
[2] Building level 2
[3] Building level 2
[2] Building level 3
[3] Building level 3
[2] Building level 4
[3] Building level 4
[2] Building level 5
[3] Building level 5
Creating AMGLevel 
[4] Building level 2
[0] Building level 2
Reconstruction on level 2
[1] Building level 2
[5] Building level 2
[2] Building level 6
[3] Building level 6
[2] Building level 7
[3] Building level 7
[2] Building level 8
[3] Building level 8
[2] Building level 9
[3] Building level 9
[2] Building level 10
[3] Building level 10
[2] Building level 11
[2] Building level 12
[3] Building level 11
[2] Building level 13
[3] Building level 12
[2] Building level 14
[3] Building level 13
[3] Building level 14
Creating AMGLevel 
[4] Building level 3
[0] Building level 3
Reconstruction on level 3
[1] Building level 3
[5] Building level 3
Creating AMGLevel 
[4] Building level 4
[0] Building level 4
Reconstruction on level 4
[1] Building level 4
[5] Building level 4
[4] Building level 5
Creating AMGLevel 
[0] Building level 5
Reconstruction on level 5
[1] Building level 5
[5] Building level 5
[4] Building level 6
Creating AMGLevel 
[0] Building level 6
Reconstruction on level 6
[1] Building level 6
[5] Building level 6
[4] Building level 7
Creating AMGLevel 
[0] Building level 7
Reconstruction on level 7
[1] Building level 7
[5] Building level 7
[4] Building level 8
Creating AMGLevel 
[0] Building level 8
Reconstruction on level 8
[1] Building level 8
[5] Building level 8
[4] Building level 9
Creating AMGLevel 
[0] Building level 9
Reconstruction on level 9
[4] Building level 10
[1] Building level 9
[5] Building level 9
Creating AMGLevel 
[0] Building level 10
Reconstruction on level 10
[4] Building level 11
[4] Building level 12
[1] Building level 10
Creating AMGLevel 
[0] Building level 11
Reconstruction on level 11
[4] Building level 13
[5] Building level 10
Creating AMGLevel 
[0] Building level 12
Reconstruction on level 12
[4] Building level 14
[1] Building level 11
Creating AMGLevel 
[0] Building level 13
Reconstruction on level 13
[5] Building level 11
[1] Building level 12
Creating AMGLevel 
[0] Building level 14
Reconstruction on level 14
[5] Building level 12
[1] Building level 13
Creating AMGLevel 
14 Level construction complete
[1] Building level 14
[5] Building level 13
[5] Building level 14
initial dot_x = 2.8654e+08
Iter #1 residual = 0.0193302
Iter #2 residual = 0.0110742
Iter #3 residual = 0.00576175
Iter #4 residual = 0.00584917
Iter #5 residual = 0.00730517
Iter #6 residual = 0.00442434
Iter #7 residual = 0.0159854
Iter #8 residual = 0.00959107
Iter #9 residual = 0.00423855
Iter #10 residual = 0.00435147
Iter #11 residual = 0.00293019
Iter #12 residual = 0.00176895
Iter #13 residual = 0.00092327
Iter #14 residual = 0.000730622
GPU: 14 iters: 3.16213 s: 1.93168 GB/s
GPUAMG:  Solving for pd, Initial residual = 0.0146089, Final residual = 0.000542226, No Iterations 14
[4] Building level 0
[5] Building level 0
[2] Building level 0
[3] Building level 0
[0] Building level 0
[1] Building level 0
[1] Building level 1
[1] Building level 2
[1] Building level 3
[1] Building level 4
[1] Building level 5
[1] Building level 6
[1] Building level 7
[1] Building level 8
[1] Building level 9
[1] Building level 10
[1] Building level 11
[1] Building level 12
[1] Building level 13
[1] Building level 14
[0] Building level 1
[0] Building level 2
[0] Building level 3
[0] Building level 4
[0] Building level 5
[0] Building level 6
[0] Building level 7
[0] Building level 8
[0] Building level 9
[0] Building level 10
[0] Building level 11
[0] Building level 12
[0] Building level 13
[0] Building level 14
14 Level construction complete
initial dot_x = 1.56287e+08
Iter #1 residual = 0.00195467
Iter #2 residual = 0.00137018
Iter #3 residual = 0.00090053
Iter #4 residual = 0.000496531
[3] Building level 1
[3] Building level 2
[3] Building level 3
[3] Building level 4
[3] Building level 5
[3] Building level 6
[3] Building level 7
[3] Building level 8
[3] Building level 9
[3] Building level 10
[3] Building level 11
[3] Building level 12
[3] Building level 13
[3] Building level 14
[4] Building level 1
[4] Building level 2
[4] Building level 3
[4] Building level 4
[4] Building level 5
[4] Building level 6
[4] Building level 7
[4] Building level 8
[4] Building level 9
[4] Building level 10
[4] Building level 11
[4] Building level 12
[4] Building level 13
[4] Building level 14
[5] Building level 1
[5] Building level 2
[5] Building level 3
[5] Building level 4
[5] Building level 5
[5] Building level 6
[5] Building level 7
[5] Building level 8
[5] Building level 9
[5] Building level 10
[5] Building level 11
[5] Building level 12
[5] Building level 13
[5] Building level 14
[2] Building level 1
[2] Building level 2
[2] Building level 3
[2] Building level 4
[2] Building level 5
[2] Building level 6
[2] Building level 7
[2] Building level 8
[2] Building level 9
[2] Building level 10
[2] Building level 11
[2] Building level 12
[2] Building level 13
[2] Building level 14
Iter #5 residual = 0.000346639
GPU: 5 iters: 1.25593 s: 1.73696 GB/s
GPUAMG:  Solving for pd, Initial residual = 0.00665961, Final residual = 0.000259421, No Iterations 5
[2] Building level 0
[3] Building level 0
[4] Building level 0
[5] Building level 0
[0] Building level 0
[1] Building level 0
[4] Building level 1
[1] Building level 1
[5] Building level 1
[3] Building level 1
[0] Building level 1
[2] Building level 1
[4] Building level 2
[2] Building level 2
[1] Building level 2
[5] Building level 2
[0] Building level 2
[3] Building level 2
[4] Building level 3
[2] Building level 3
[5] Building level 3
[1] Building level 3
[3] Building level 3
[0] Building level 3
[2] Building level 4
[4] Building level 4
[1] Building level 4
[3] Building level 4
[5] Building level 4
[0] Building level 4
[2] Building level 5
[4] Building level 5
[1] Building level 5
[3] Building level 5
[2] Building level 6
[5] Building level 5
[4] Building level 6
[0] Building level 5
[2] Building level 7
[1] Building level 6
[3] Building level 6
[2] Building level 8
[4] Building level 7
[2] Building level 9
[5] Building level 6
[2] Building level 10
[2] Building level 11
[2] Building level 12
[2] Building level 13
[2] Building level 14
[4] Building level 8
[1] Building level 7
[3] Building level 7
[4] Building level 9
[4] Building level 10
[4] Building level 11
[4] Building level 12
[4] Building level 13
[0] Building level 6
[1] Building level 8
[4] Building level 14
[3] Building level 8
[5] Building level 7
[3] Building level 9
[1] Building level 9
[3] Building level 10
[1] Building level 10
[3] Building level 11
[1] Building level 11
[3] Building level 12
[1] Building level 12
[3] Building level 13
[3] Building level 14
[1] Building level 13
[1] Building level 14
[5] Building level 8
[5] Building level 9
[0] Building level 7
[5] Building level 10
[5] Building level 11
[5] Building level 12
[5] Building level 13
[5] Building level 14
[0] Building level 8
[0] Building level 9
[0] Building level 10
[0] Building level 11
[0] Building level 12
[0] Building level 13
[0] Building level 14
14 Level construction complete
initial dot_x = 1.67685e+08
Iter #1 residual = 0.00100649
Iter #2 residual = 0.00120172
Iter #3 residual = 0.000812776
Iter #4 residual = 0.000680707
Iter #5 residual = 0.0018257
Iter #6 residual = 0.00109343
Iter #7 residual = 0.000685603
Iter #8 residual = 0.000613857
Iter #9 residual = 0.000876622
Iter #10 residual = 0.000420872
Iter #11 residual = 0.000263404
Iter #12 residual = 0.000323185
Iter #13 residual = 0.000168016
Iter #14 residual = 0.000119037
Iter #15 residual = 5.54753e-05
Iter #16 residual = 5.92569e-05
Iter #17 residual = 3.9411e-05
Iter #18 residual = 3.93003e-05
Iter #19 residual = 3.38162e-05
Iter #20 residual = 2.58002e-05
Iter #21 residual = 2.81453e-05
Iter #22 residual = 5.35949e-05
Iter #23 residual = 3.08431e-05
Iter #24 residual = 7.64499e-05
Iter #25 residual = 7.69911e-05
Iter #26 residual = 2.0478e-05
Iter #27 residual = 1.735e-05
Iter #28 residual = 2.12338e-05
Iter #29 residual = 2.15836e-05
Iter #30 residual = 1.96179e-05
Iter #31 residual = 4.02392e-05
Iter #32 residual = 2.12194e-05
Iter #33 residual = 4.79879e-05
Iter #34 residual = 4.66309e-05
Iter #35 residual = 1.35811e-05
Iter #36 residual = 1.26844e-05
Iter #37 residual = 9.37947e-06
Iter #38 residual = 9.7174e-06
Iter #39 residual = 9.98035e-06
Iter #40 residual = 7.95387e-06
Iter #41 residual = 1.48842e-05
Iter #42 residual = 9.90642e-06
Iter #43 residual = 3.0529e-05
Iter #44 residual = 2.50609e-05
Iter #45 residual = 6.188e-06
Iter #46 residual = 1.7689e-05
Iter #47 residual = 1.58065e-05
Iter #48 residual = 5.90173e-06
Iter #49 residual = 2.83477e-06
Iter #50 residual = 2.31198e-06
GPU: 50 iters: 10.6985 s: 2.03907 GB/s
GPUAMG:  Solving for pd, Initial residual = 0.00637135, Final residual = 1.73626e-06, No Iterations 50
time step continuity errors : sum local = 1.16719e-10, global = -4.22021e-11, cumulative = -7.62774e-08
ExecutionTime = 616.84 s  ClockTime = 647 s

End

Finalising parallel run
