 Data for JOB [35271,1] offset 0

 ========================   JOB MAP   ========================

 Data for node: ivb124	Num slots: 6	Max slots: 0	Num procs: 6
 	Process OMPI jobid: [35271,1] App: 0 Process rank: 0
 	Process OMPI jobid: [35271,1] App: 0 Process rank: 1
 	Process OMPI jobid: [35271,1] App: 0 Process rank: 2
 	Process OMPI jobid: [35271,1] App: 0 Process rank: 3
 	Process OMPI jobid: [35271,1] App: 0 Process rank: 4
 	Process OMPI jobid: [35271,1] App: 0 Process rank: 5

 =============================================================
[ivb124:25317] MCW rank 3 bound to socket 0[core 3[hwt 0]]: [./././B/./././././.][./././././././././.]
[ivb124:25317] MCW rank 4 bound to socket 0[core 4[hwt 0]]: [././././B/././././.][./././././././././.]
[ivb124:25317] MCW rank 5 bound to socket 0[core 5[hwt 0]]: [./././././B/./././.][./././././././././.]
[ivb124:25317] MCW rank 0 bound to socket 0[core 0[hwt 0]]: [B/././././././././.][./././././././././.]
[ivb124:25317] MCW rank 1 bound to socket 0[core 1[hwt 0]]: [./B/./././././././.][./././././././././.]
[ivb124:25317] MCW rank 2 bound to socket 0[core 2[hwt 0]]: [././B/././././././.][./././././././././.]
/*---------------------------------------------------------------------------*\
| =========                 |                                                 |
| \\      /  F ield         | foam-extend: Open Source CFD                    |
|  \\    /   O peration     | Version:     3.1                                |
|   \\  /    A nd           | Web:         http://www.extend-project.de       |
|    \\/     M anipulation  |                                                 |
\*---------------------------------------------------------------------------*/
Build    : 3.1-e2da948002a2
Exec     : interFoam -parallel
Date     : May 25 2016
Time     : 19:35:47
Host     : ivb124
PID      : 25364
CtrlDict : /home-2/vplatonov/foam/foam-extend-3.1/etc/controlDict
Case     : /home/vplatonov/tests/rt12mln
nProcs   : 6
Slaves : 
5
(
ivb124.25359
ivb124.25372
ivb124.25360
ivb124.25367
ivb124.25375
)

Pstream initialized with:
    floatTransfer     : 0
    nProcsSimpleSum   : 0
    commsType         : blocking
SigFpe   : Enabling floating point exception trapping (FOAM_SIGFPE).

// * * * * * * * * * * * * * * * * * * * * * * * * * * * * * * * * * * * * * //
Create time

Create mesh for time = 0


Reading g
Reading field pd

Reading field alpha1

Reading field U

Reading/calculating face flux field phi

Reading transportProperties

Selecting incompressible transport model Newtonian
Selecting incompressible transport model Newtonian
Calculating field g.h

Selecting turbulence model type laminar
time step continuity errors : sum local = 0, global = 0, cumulative = 0
Created persistent data with name pcorr
GPUAMG:  Solving for pcorr, Initial residual = 0, Final residual = 0, No Iterations 0
time step continuity errors : sum local = 0, global = 0, cumulative = 0
Courant Number mean: 0 max: 0 velocity magnitude: 0

Starting time loop

Courant Number mean: 0 max: 0 velocity magnitude: 0
Time = 0.001

MULES: Solving for alpha1
Liquid phase volume fraction = 0.00275421  Min(alpha1) = 0  Max(alpha1) = 1
MULES: Solving for alpha1
Liquid phase volume fraction = 0.00275421  Min(alpha1) = 0  Max(alpha1) = 1
Created persistent data with name pd
[1] Building level 0
[2] Building level 0
[3] Building level 0
[4] Building level 0
[5] Building level 0
[0] Building level 0
Creating AMGLevel 
[5] Building level 1
[4] Building level 1
[0] Building level 1
[2] Building level 1
[1] Building level 1
[3] Building level 1
[4] Building level 2
[5] Building level 2
Creating AMGLevel 
[0] Building level 2
[2] Building level 2
[1] Building level 2
[3] Building level 2
[5] Building level 3
[4] Building level 3
Creating AMGLevel 
[0] Building level 3
[2] Building level 3
[1] Building level 3
[3] Building level 3
Creating AMGLevel 
[5] Building level 4
[0] Building level 4
[4] Building level 4
[2] Building level 4
[1] Building level 4
[3] Building level 4
Creating AMGLevel 
[0] Building level 5
[5] Building level 5
[4] Building level 5
[2] Building level 5
[1] Building level 5
[3] Building level 5
Creating AMGLevel 
[4] Building level 6
[0] Building level 6
[5] Building level 6
[2] Building level 6
Creating AMGLevel 
[0] Building level 7
[5] Building level 7
[4] Building level 7
[1] Building level 6
[3] Building level 6
Creating AMGLevel 
[0] Building level 8
[5] Building level 8
[4] Building level 8
Creating AMGLevel 
[0] Building level 9
[5] Building level 9
[4] Building level 9
[2] Building level 7
Creating AMGLevel 
[0] Building level 10
[5] Building level 10
Creating AMGLevel 
[0] Building level 11
[4] Building level 10
Creating AMGLevel 
[0] Building level 12
[5] Building level 11
Creating AMGLevel 
[0] Building level 13
[4] Building level 11
[5] Building level 12
Creating AMGLevel 
[0] Building level 14
[4] Building level 12
[1] Building level 7
Creating AMGLevel 
14 Level construction complete
[5] Building level 13
[4] Building level 13
[5] Building level 14
[4] Building level 14
[3] Building level 7
[2] Building level 8
[1] Building level 8
[2] Building level 9
[3] Building level 8
[2] Building level 10
[1] Building level 9
[2] Building level 11
[2] Building level 12
[3] Building level 9
[2] Building level 13
[1] Building level 10
[2] Building level 14
[3] Building level 10
[1] Building level 11
[1] Building level 12
[3] Building level 11
[1] Building level 13
[3] Building level 12
[1] Building level 14
[3] Building level 13
[3] Building level 14
initial dot_x = 0
Iter #1 residual = 0.0735086
GPU: 1 iters: 0.432508 s: 1.00846 GB/s
GPUAMG:  Solving for pd, Initial residual = 1, Final residual = 0.0272231, No Iterations 1
[5] Building level 0
[0] Building level 0
[3] Building level 0
[2] Building level 0
[1] Building level 0
[4] Building level 0
[5] Building level 1
[0] Building level 1
[3] Building level 1
[4] Building level 1
[2] Building level 1
[1] Building level 1
[3] Building level 2
[4] Building level 2
[5] Building level 2
[2] Building level 2
[0] Building level 2
[1] Building level 2
[3] Building level 3
[4] Building level 3
[5] Building level 3
[2] Building level 3
[0] Building level 3
[1] Building level 3
[3] Building level 4
[4] Building level 4
[2] Building level 4
[0] Building level 4
[5] Building level 4
[1] Building level 4
[3] Building level 5
[4] Building level 5
[2] Building level 5
[0] Building level 5
[5] Building level 5
[3] Building level 6
[4] Building level 6
[2] Building level 6
[3] Building level 7
[1] Building level 5
[0] Building level 6
[5] Building level 6
[4] Building level 7
[3] Building level 8
[3] Building level 9
[4] Building level 8
[2] Building level 7
[3] Building level 10
[3] Building level 11
[3] Building level 12
[3] Building level 13
[3] Building level 14
[4] Building level 9
[0] Building level 7
[4] Building level 10
[5] Building level 7
[4] Building level 11
[4] Building level 12
[4] Building level 13
[4] Building level 14
[2] Building level 8
[0] Building level 8
[2] Building level 9
[5] Building level 8
[1] Building level 6
[2] Building level 10
[2] Building level 11
[0] Building level 9
[2] Building level 12
[2] Building level 13
[2] Building level 14
[5] Building level 9
[0] Building level 10
[0] Building level 11
[5] Building level 10
[0] Building level 12
[0] Building level 13
[0] Building level 14
[5] Building level 11
14 Level construction complete
[5] Building level 12
[5] Building level 13
[5] Building level 14
[1] Building level 7
[1] Building level 8
[1] Building level 9
[1] Building level 10
[1] Building level 11
[1] Building level 12
[1] Building level 13
[1] Building level 14
initial dot_x = 75888.5
Iter #1 residual = 0.00835047
Iter #2 residual = 0.00430565
Iter #3 residual = 0.00228549
Iter #4 residual = 0.00122376
GPU: 4 iters: 1.07111 s: 1.62884 GB/s
GPUAMG:  Solving for pd, Initial residual = 0.0195871, Final residual = 0.000647003, No Iterations 4
[3] Building level 0
[4] Building level 0
[1] Building level 0
[0] Building level 0
[2] Building level 0
[5] Building level 0
[5] Building level 1
[0] Building level 1
[3] Building level 1
[4] Building level 1
[2] Building level 1
[1] Building level 1
[3] Building level 2
[4] Building level 2
[5] Building level 2
[2] Building level 2
[0] Building level 2
[1] Building level 2
[3] Building level 3
[4] Building level 3
[5] Building level 3
[2] Building level 3
[0] Building level 3
[1] Building level 3
[3] Building level 4
[4] Building level 4
[2] Building level 4
[0] Building level 4
[5] Building level 4
[1] Building level 4
[3] Building level 5
[4] Building level 5
[2] Building level 5
[0] Building level 5
[5] Building level 5
[3] Building level 6
[4] Building level 6
[2] Building level 6
[3] Building level 7
[1] Building level 5
[0] Building level 6
[5] Building level 6
[4] Building level 7
[3] Building level 8
[3] Building level 9
[4] Building level 8
[2] Building level 7
[3] Building level 10
[3] Building level 11
[3] Building level 12
[3] Building level 13
[3] Building level 14
[4] Building level 9
[0] Building level 7
[5] Building level 7
[4] Building level 10
[4] Building level 11
[4] Building level 12
[2] Building level 8
[4] Building level 13
[4] Building level 14
[0] Building level 8
[2] Building level 9
[5] Building level 8
[2] Building level 10
[1] Building level 6
[2] Building level 11
[0] Building level 9
[2] Building level 12
[2] Building level 13
[5] Building level 9
[2] Building level 14
[0] Building level 10
[5] Building level 10
[0] Building level 11
[0] Building level 12
[0] Building level 13
[5] Building level 11
[0] Building level 14
14 Level construction complete
[5] Building level 12
[5] Building level 13
[5] Building level 14
[1] Building level 7
[1] Building level 8
[1] Building level 9
[1] Building level 10
[1] Building level 11
[1] Building level 12
[1] Building level 13
[1] Building level 14
initial dot_x = 126210
Iter #1 residual = 0.00255174
Iter #2 residual = 0.00115621
Iter #3 residual = 0.000570667
Iter #4 residual = 0.000292668
Iter #5 residual = 0.000161002
Iter #6 residual = 9.84778e-05
Iter #7 residual = 6.33672e-05
Iter #8 residual = 3.99815e-05
Iter #9 residual = 2.72253e-05
Iter #10 residual = 1.80711e-05
Iter #11 residual = 1.33605e-05
Iter #12 residual = 9.87438e-06
Iter #13 residual = 7.7362e-06
Iter #14 residual = 7.66238e-06
Iter #15 residual = 6.01145e-06
Iter #16 residual = 5.36991e-06
Iter #17 residual = 4.83807e-06
Iter #18 residual = 6.40127e-06
Iter #19 residual = 5.86858e-06
Iter #20 residual = 3.95145e-06
Iter #21 residual = 3.63966e-06
Iter #22 residual = 2.18315e-06
Iter #23 residual = 2.22769e-06
Iter #24 residual = 6.06286e-06
Iter #25 residual = 3.81448e-06
Iter #26 residual = 1.58513e-05
Iter #27 residual = 9.54712e-06
Iter #28 residual = 3.36575e-06
Iter #29 residual = 3.53511e-06
Iter #30 residual = 3.33353e-06
Iter #31 residual = 2.44511e-06
Iter #32 residual = 5.12841e-06
Iter #33 residual = 3.13196e-06
Iter #34 residual = 3.39058e-06
Iter #35 residual = 3.3443e-06
Iter #36 residual = 2.7058e-06
Iter #37 residual = 1.83845e-06
Iter #38 residual = 3.15024e-06
Iter #39 residual = 2.10402e-06
Iter #40 residual = 7.50733e-07
Iter #41 residual = 1.94738e-06
Iter #42 residual = 1.30356e-06
Iter #43 residual = 1.05889e-06
Iter #44 residual = 1.02823e-06
Iter #45 residual = 1.02598e-06
Iter #46 residual = 1.71115e-06
Iter #47 residual = 1.25533e-06
Iter #48 residual = 9.26419e-07
Iter #49 residual = 8.10158e-07
Iter #50 residual = 1.12576e-06
GPU: 50 iters: 10.9123 s: 1.9985 GB/s
GPUAMG:  Solving for pd, Initial residual = 0.00627278, Final residual = 9.72867e-07, No Iterations 50
time step continuity errors : sum local = 8.08748e-11, global = -2.16887e-24, cumulative = -2.16887e-24
ExecutionTime = 74.2 s  ClockTime = 100 s

Courant Number mean: 4.83941e-06 max: 0.00216219 velocity magnitude: 0.0337842
Time = 0.002

MULES: Solving for alpha1
Liquid phase volume fraction = 0.00275421  Min(alpha1) = 0  Max(alpha1) = 1
MULES: Solving for alpha1
Liquid phase volume fraction = 0.00275421  Min(alpha1) = 0  Max(alpha1) = 1
[3] Building level 0
[2] Building level 0
[4] Building level 0
[1] Building level 0
[0] Building level 0
[5] Building level 0
[5] Building level 1
[3] Building level 1
[0] Building level 1
Reconstruction on level 1
[4] Building level 1
[2] Building level 1
[1] Building level 1
[3] Building level 2
[2] Building level 2
[3] Building level 3
[2] Building level 3
[3] Building level 4
[2] Building level 4
[3] Building level 5
[2] Building level 5
Creating AMGLevel 
[4] Building level 2
[0] Building level 2
Reconstruction on level 2
[5] Building level 2
[1] Building level 2
[3] Building level 6
[2] Building level 6
[3] Building level 7
[2] Building level 7
[3] Building level 8
[2] Building level 8
[3] Building level 9
[2] Building level 9
[3] Building level 10
[3] Building level 11
[3] Building level 12
[2] Building level 10
[3] Building level 13
[3] Building level 14
[2] Building level 11
[2] Building level 12
[2] Building level 13
[2] Building level 14
Creating AMGLevel 
[0] Building level 3
Reconstruction on level 3
[4] Building level 3
[5] Building level 3
[1] Building level 3
Creating AMGLevel 
[0] Building level 4
Reconstruction on level 4
[5] Building level 4
[4] Building level 4
[1] Building level 4
Creating AMGLevel 
[0] Building level 5
Reconstruction on level 5
[5] Building level 5
[1] Building level 5
[4] Building level 5
Creating AMGLevel 
[0] Building level 6
Reconstruction on level 6
[5] Building level 6
[1] Building level 6
Creating AMGLevel 
[0] Building level 7
Reconstruction on level 7
[4] Building level 6
Creating AMGLevel 
[0] Building level 8
Reconstruction on level 8
Creating AMGLevel 
[0] Building level 9
Reconstruction on level 9
[5] Building level 7
[1] Building level 7
Creating AMGLevel 
[0] Building level 10
Reconstruction on level 10
[4] Building level 7
Creating AMGLevel 
[0] Building level 11
Reconstruction on level 11
Creating AMGLevel 
[0] Building level 12
Reconstruction on level 12
Creating AMGLevel 
[0] Building level 13
Reconstruction on level 13
Creating AMGLevel 
[0] Building level 14
Reconstruction on level 14
Creating AMGLevel 
14 Level construction complete
[5] Building level 8
[1] Building level 8
[4] Building level 8
[5] Building level 9
[5] Building level 10
[5] Building level 11
[4] Building level 9
[1] Building level 9
[5] Building level 12
[5] Building level 13
[5] Building level 14
[4] Building level 10
[1] Building level 10
[4] Building level 11
[4] Building level 12
[1] Building level 11
[4] Building level 13
[4] Building level 14
[1] Building level 12
[1] Building level 13
[1] Building level 14
initial dot_x = 114174
Iter #1 residual = 0.0186692
Iter #2 residual = 0.0161368
Iter #3 residual = 0.00760765
Iter #4 residual = 0.0102831
Iter #5 residual = 0.00662343
Iter #6 residual = 0.0115852
Iter #7 residual = 0.012016
Iter #8 residual = 0.006492
Iter #9 residual = 0.00690114
Iter #10 residual = 0.00958697
Iter #11 residual = 0.0101546
Iter #12 residual = 0.0043424
Iter #13 residual = 0.0120036
Iter #14 residual = 0.0109089
Iter #15 residual = 0.0114133
Iter #16 residual = 0.00715983
Iter #17 residual = 0.00465242
Iter #18 residual = 0.00920726
Iter #19 residual = 0.00780735
Iter #20 residual = 0.00499793
Iter #21 residual = 0.00505093
Iter #22 residual = 0.00737171
Iter #23 residual = 0.00481718
Iter #24 residual = 0.00598953
Iter #25 residual = 0.00482214
Iter #26 residual = 0.00455667
Iter #27 residual = 0.0044818
Iter #28 residual = 0.00620719
Iter #29 residual = 0.00533447
Iter #30 residual = 0.00563721
Iter #31 residual = 0.0034056
Iter #32 residual = 0.00289606
Iter #33 residual = 0.0112242
Iter #34 residual = 0.00475245
Iter #35 residual = 0.00462942
Iter #36 residual = 0.00450023
Iter #37 residual = 0.00182506
Iter #38 residual = 0.00324411
Iter #39 residual = 0.00380758
Iter #40 residual = 0.00174426
Iter #41 residual = 0.00361259
Iter #42 residual = 0.00229554
Iter #43 residual = 0.00424632
Iter #44 residual = 0.00304974
Iter #45 residual = 0.00287294
Iter #46 residual = 0.00157751
Iter #47 residual = 0.00245834
Iter #48 residual = 0.00159514
Iter #49 residual = 0.00370351
Iter #50 residual = 0.003177
GPU: 50 iters: 10.8724 s: 2.00584 GB/s
GPUAMG:  Solving for pd, Initial residual = 0.00446254, Final residual = 0.00104925, No Iterations 50
[5] Building level 0
[1] Building level 0
[2] Building level 0
[4] Building level 0
[3] Building level 0
[0] Building level 0
[0] Building level 1
[3] Building level 1
[5] Building level 1
[4] Building level 1
[2] Building level 1
[1] Building level 1
[0] Building level 2
[3] Building level 2
[4] Building level 2
[2] Building level 2
[5] Building level 2
[1] Building level 2
[0] Building level 3
[3] Building level 3
[4] Building level 3
[2] Building level 3
[5] Building level 3
[1] Building level 3
[0] Building level 4
[2] Building level 4
[3] Building level 4
[4] Building level 4
[5] Building level 4
[1] Building level 4
[0] Building level 5
[2] Building level 5
[3] Building level 5
[4] Building level 5
[1] Building level 5
[0] Building level 6
[5] Building level 5
[2] Building level 6
[0] Building level 7
[3] Building level 6
[4] Building level 6
[1] Building level 6
[0] Building level 8
[2] Building level 7
[0] Building level 9
[0] Building level 10
[0] Building level 11
[0] Building level 12
[0] Building level 13
[0] Building level 14
[3] Building level 7
14 Level construction complete
[2] Building level 8
[5] Building level 6
[2] Building level 9
[1] Building level 7
[4] Building level 7
[2] Building level 10
[2] Building level 11
[3] Building level 8
[2] Building level 12
[2] Building level 13
[2] Building level 14
[3] Building level 9
[1] Building level 8
[4] Building level 8
[3] Building level 10
[3] Building level 11
[3] Building level 12
[5] Building level 7
[3] Building level 13
[3] Building level 14
[1] Building level 9
[4] Building level 9
[1] Building level 10
[4] Building level 10
[1] Building level 11
[1] Building level 12
[4] Building level 11
[1] Building level 13
[1] Building level 14
[4] Building level 12
[4] Building level 13
[4] Building level 14
[5] Building level 8
[5] Building level 9
[5] Building level 10
[5] Building level 11
[5] Building level 12
[5] Building level 13
[5] Building level 14
initial dot_x = 7.00683e+09
Iter #1 residual = 0.0196513
Iter #2 residual = 0.0201683
Iter #3 residual = 0.00732163
Iter #4 residual = 0.0123487
Iter #5 residual = 0.0102853
Iter #6 residual = 0.0179854
Iter #7 residual = 0.00786852
Iter #8 residual = 0.00492387
Iter #9 residual = 0.00689801
Iter #10 residual = 0.00859134
Iter #11 residual = 0.00423288
Iter #12 residual = 0.00628189
Iter #13 residual = 0.0058221
Iter #14 residual = 0.0054477
Iter #15 residual = 0.00517881
Iter #16 residual = 0.00732982
Iter #17 residual = 0.00386346
Iter #18 residual = 0.00575004
Iter #19 residual = 0.00461205
Iter #20 residual = 0.00934693
Iter #21 residual = 0.00844874
Iter #22 residual = 0.00299262
Iter #23 residual = 0.00328257
Iter #24 residual = 0.0090479
Iter #25 residual = 0.00403703
Iter #26 residual = 0.00282858
Iter #27 residual = 0.00640548
Iter #28 residual = 0.00414162
Iter #29 residual = 0.00615838
Iter #30 residual = 0.00702447
Iter #31 residual = 0.00376891
Iter #32 residual = 0.00415889
Iter #33 residual = 0.00445977
Iter #34 residual = 0.00841734
Iter #35 residual = 0.0051646
Iter #36 residual = 0.00625176
Iter #37 residual = 0.0024066
Iter #38 residual = 0.00355447
Iter #39 residual = 0.00303932
Iter #40 residual = 0.0028091
Iter #41 residual = 0.00218245
Iter #42 residual = 0.00131162
Iter #43 residual = 0.00179255
Iter #44 residual = 0.00193626
Iter #45 residual = 0.00214624
Iter #46 residual = 0.00129977
Iter #47 residual = 0.00213055
Iter #48 residual = 0.00228706
Iter #49 residual = 0.00258026
Iter #50 residual = 0.00113562
GPU: 50 iters: 10.8782 s: 2.00477 GB/s
GPUAMG:  Solving for pd, Initial residual = 0.00488576, Final residual = 0.00125465, No Iterations 50
[2] Building level 0
[3] Building level 0
[1] Building level 0
[5] Building level 0
[4] Building level 0
[0] Building level 0
[0] Building level 1
[3] Building level 1
[5] Building level 1
[4] Building level 1
[1] Building level 1
[2] Building level 1
[3] Building level 2
[0] Building level 2
[4] Building level 2
[2] Building level 2
[5] Building level 2
[1] Building level 2
[3] Building level 3
[0] Building level 3
[4] Building level 3
[2] Building level 3
[5] Building level 3
[1] Building level 3
[0] Building level 4
[2] Building level 4
[3] Building level 4
[4] Building level 4
[5] Building level 4
[1] Building level 4
[0] Building level 5
[2] Building level 5
[3] Building level 5
[4] Building level 5
[0] Building level 6
[1] Building level 5
[5] Building level 5
[2] Building level 6
[0] Building level 7
[3] Building level 6
[0] Building level 8
[4] Building level 6
[1] Building level 6
[0] Building level 9
[2] Building level 7
[0] Building level 10
[0] Building level 11
[0] Building level 12
[0] Building level 13
[0] Building level 14
14 Level construction complete
[3] Building level 7
[2] Building level 8
[5] Building level 6
[2] Building level 9
[3] Building level 8
[1] Building level 7
[2] Building level 10
[4] Building level 7
[2] Building level 11
[2] Building level 12
[2] Building level 13
[2] Building level 14
[3] Building level 9
[3] Building level 10
[3] Building level 11
[1] Building level 8
[3] Building level 12
[3] Building level 13
[3] Building level 14
[4] Building level 8
[5] Building level 7
[1] Building level 9
[4] Building level 9
[1] Building level 10
[4] Building level 10
[1] Building level 11
[1] Building level 12
[4] Building level 11
[1] Building level 13
[4] Building level 12
[1] Building level 14
[4] Building level 13
[4] Building level 14
[5] Building level 8
[5] Building level 9
[5] Building level 10
[5] Building level 11
[5] Building level 12
[5] Building level 13
[5] Building level 14
initial dot_x = 5.54561e+06
Iter #1 residual = 0.0129048
Iter #2 residual = 0.0134844
Iter #3 residual = 0.00767353
Iter #4 residual = 0.0107469
Iter #5 residual = 0.0103364
Iter #6 residual = 0.00684279
Iter #7 residual = 0.00640407
Iter #8 residual = 0.00538885
Iter #9 residual = 0.00661513
Iter #10 residual = 0.00967401
Iter #11 residual = 0.00577144
Iter #12 residual = 0.0115055
Iter #13 residual = 0.00605002
Iter #14 residual = 0.00496714
Iter #15 residual = 0.0045125
Iter #16 residual = 0.00932208
Iter #17 residual = 0.00598319
Iter #18 residual = 0.0157549
Iter #19 residual = 0.0120182
Iter #20 residual = 0.0049055
Iter #21 residual = 0.00824917
Iter #22 residual = 0.00522133
Iter #23 residual = 0.0102052
Iter #24 residual = 0.00942786
Iter #25 residual = 0.00658289
Iter #26 residual = 0.00705699
Iter #27 residual = 0.00694845
Iter #28 residual = 0.00347001
Iter #29 residual = 0.005661
Iter #30 residual = 0.0047267
Iter #31 residual = 0.00766491
Iter #32 residual = 0.00449857
Iter #33 residual = 0.0151314
Iter #34 residual = 0.0152424
Iter #35 residual = 0.00609825
Iter #36 residual = 0.00663267
Iter #37 residual = 0.00687908
Iter #38 residual = 0.00254463
Iter #39 residual = 0.00451723
Iter #40 residual = 0.00294354
Iter #41 residual = 0.00583816
Iter #42 residual = 0.00536234
Iter #43 residual = 0.00180939
Iter #44 residual = 0.00468729
Iter #45 residual = 0.00334112
Iter #46 residual = 0.00161775
Iter #47 residual = 0.00256845
Iter #48 residual = 0.00193363
Iter #49 residual = 0.00349177
Iter #50 residual = 0.00376117
GPU: 50 iters: 10.8734 s: 2.00566 GB/s
GPUAMG:  Solving for pd, Initial residual = 0.00481185, Final residual = 0.00154771, No Iterations 50
time step continuity errors : sum local = 1.01339e-07, global = -4.12182e-08, cumulative = -4.12182e-08
ExecutionTime = 143.98 s  ClockTime = 170 s

Courant Number mean: 1.20001e-05 max: 0.153198 velocity magnitude: 1.19686
Time = 0.003

MULES: Solving for alpha1
Liquid phase volume fraction = 0.00275424  Min(alpha1) = 0  Max(alpha1) = 1
MULES: Solving for alpha1
Liquid phase volume fraction = 0.00275426  Min(alpha1) = -8.09398e-31  Max(alpha1) = 1
[4] Building level 0
[5] Building level 0
[2] Building level 0
[3] Building level 0
[0] Building level 0
[1] Building level 0
[0] Building level 1
Reconstruction on level 1
[3] Building level 1
[5] Building level 1
[4] Building level 1
[1] Building level 1
[2] Building level 1
[3] Building level 2
[4] Building level 2
[2] Building level 2
[1] Building level 2
[3] Building level 3
[2] Building level 3
[3] Building level 4
[2] Building level 4
[4] Building level 3
[1] Building level 3
[3] Building level 5
[2] Building level 5
Creating AMGLevel 
[0] Building level 2
Reconstruction on level 2
[5] Building level 2
[4] Building level 4
[3] Building level 6
[2] Building level 6
[1] Building level 4
[3] Building level 7
[2] Building level 7
[3] Building level 8
[2] Building level 8
[3] Building level 9
[4] Building level 5
[3] Building level 10
[2] Building level 9
[3] Building level 11
[3] Building level 12
[2] Building level 10
[3] Building level 13
[3] Building level 14
[2] Building level 11
[2] Building level 12
[2] Building level 13
[2] Building level 14
[1] Building level 5
Creating AMGLevel 
[0] Building level 3
Reconstruction on level 3
[5] Building level 3
[4] Building level 6
[1] Building level 6
[4] Building level 7
[4] Building level 8
[1] Building level 7
[4] Building level 9
[4] Building level 10
[4] Building level 11
[4] Building level 12
[4] Building level 13
[4] Building level 14
[1] Building level 8
[1] Building level 9
[1] Building level 10
Creating AMGLevel 
[1] Building level 11
[0] Building level 4
Reconstruction on level 4
[1] Building level 12
[1] Building level 13
[1] Building level 14
[5] Building level 4
Creating AMGLevel 
[0] Building level 5
Reconstruction on level 5
[5] Building level 5
Creating AMGLevel 
[0] Building level 6
Reconstruction on level 6
[5] Building level 6
Creating AMGLevel 
[0] Building level 7
Reconstruction on level 7
[5] Building level 7
Creating AMGLevel 
[0] Building level 8
Reconstruction on level 8
Creating AMGLevel 
[0] Building level 9
Reconstruction on level 9
[5] Building level 8
Creating AMGLevel 
[0] Building level 10
Reconstruction on level 10
Creating AMGLevel 
[0] Building level 11
Reconstruction on level 11
Creating AMGLevel 
[0] Building level 12
Reconstruction on level 12
[5] Building level 9
Creating AMGLevel 
[0] Building level 13
Reconstruction on level 13
Creating AMGLevel 
[0] Building level 14
Reconstruction on level 14
Creating AMGLevel 
14 Level construction complete
[5] Building level 10
[5] Building level 11
[5] Building level 12
[5] Building level 13
[5] Building level 14
initial dot_x = 4.28494e+09
Iter #1 residual = 0.0205662
Iter #2 residual = 0.0155379
Iter #3 residual = 0.0137218
Iter #4 residual = 0.0110573
Iter #5 residual = 0.0141205
Iter #6 residual = 0.00953713
Iter #7 residual = 0.0119731
Iter #8 residual = 0.00804175
Iter #9 residual = 0.0391391
Iter #10 residual = 0.02164
Iter #11 residual = 0.0138054
Iter #12 residual = 0.0209403
Iter #13 residual = 0.0123257
Iter #14 residual = 0.00861807
Iter #15 residual = 0.00513598
Iter #16 residual = 0.0209909
Iter #17 residual = 0.0128929
Iter #18 residual = 0.00653675
Iter #19 residual = 0.00649233
Iter #20 residual = 0.00376724
Iter #21 residual = 0.00704668
Iter #22 residual = 0.00638222
Iter #23 residual = 0.00324495
Iter #24 residual = 0.00651054
Iter #25 residual = 0.00333946
Iter #26 residual = 0.00227472
Iter #27 residual = 0.00234794
Iter #28 residual = 0.00127515
Iter #29 residual = 0.00104893
Iter #30 residual = 0.000744472
Iter #31 residual = 0.00113363
Iter #32 residual = 0.0013666
Iter #33 residual = 0.00198322
Iter #34 residual = 0.00106842
Iter #35 residual = 0.00144876
Iter #36 residual = 0.00100011
GPU: 36 iters: 7.84676 s: 2.00108 GB/s
GPUAMG:  Solving for pd, Initial residual = 0.01072, Final residual = 0.000482024, No Iterations 36
[0] Building level 0
[5] Building level 0
[2] Building level 0
[4] Building level 0
[1] Building level 0
[3] Building level 0
[0] Building level 1
[3] Building level 1
[5] Building level 1
[4] Building level 1
[1] Building level 1
[2] Building level 1
[3] Building level 2
[4] Building level 2
[0] Building level 2
[5] Building level 2
[2] Building level 2
[1] Building level 2
[3] Building level 3
[4] Building level 3
[0] Building level 3
[2] Building level 3
[5] Building level 3
[1] Building level 3
[3] Building level 4
[2] Building level 4
[0] Building level 4
[4] Building level 4
[1] Building level 4
[5] Building level 4
[3] Building level 5
[2] Building level 5
[0] Building level 5
[4] Building level 5
[1] Building level 5
[3] Building level 6
[5] Building level 5
[2] Building level 6
[4] Building level 6
[3] Building level 7
[0] Building level 6
[2] Building level 7
[3] Building level 8
[1] Building level 6
[2] Building level 8
[3] Building level 9
[4] Building level 7
[2] Building level 9
[3] Building level 10
[0] Building level 7
[5] Building level 6
[3] Building level 11
[3] Building level 12
[2] Building level 10
[3] Building level 13
[3] Building level 14
[2] Building level 11
[2] Building level 12
[2] Building level 13
[2] Building level 14
[4] Building level 8
[0] Building level 8
[1] Building level 7
[4] Building level 9
[0] Building level 9
[4] Building level 10
[4] Building level 11
[4] Building level 12
[0] Building level 10
[4] Building level 13
[4] Building level 14
[0] Building level 11
[5] Building level 7
[0] Building level 12
[0] Building level 13
[0] Building level 14
14 Level construction complete
[1] Building level 8
[1] Building level 9
[5] Building level 8
[1] Building level 10
[1] Building level 11
[1] Building level 12
[1] Building level 13
[1] Building level 14
[5] Building level 9
[5] Building level 10
[5] Building level 11
[5] Building level 12
[5] Building level 13
[5] Building level 14
initial dot_x = 4.27877e+08
Iter #1 residual = 0.0115339
Iter #2 residual = 0.00867468
Iter #3 residual = 0.0164285
Iter #4 residual = 0.0106287
Iter #5 residual = 0.00569021
Iter #6 residual = 0.00521084
Iter #7 residual = 0.00295042
Iter #8 residual = 0.00544885
Iter #9 residual = 0.00429088
Iter #10 residual = 0.00374853
Iter #11 residual = 0.0023104
Iter #12 residual = 0.00513149
Iter #13 residual = 0.00393001
Iter #14 residual = 0.000991068
Iter #15 residual = 0.00276029
Iter #16 residual = 0.00194242
Iter #17 residual = 0.00353641
Iter #18 residual = 0.00220878
Iter #19 residual = 0.00124797
Iter #20 residual = 0.000637378
Iter #21 residual = 0.000646915
Iter #22 residual = 0.000720976
Iter #23 residual = 0.000569407
Iter #24 residual = 0.000594418
Iter #25 residual = 0.000628004
Iter #26 residual = 0.000688324
Iter #27 residual = 0.000916784
Iter #28 residual = 0.000771196
Iter #29 residual = 0.000918033
Iter #30 residual = 0.000794165
Iter #31 residual = 0.000957248
Iter #32 residual = 0.000748129
Iter #33 residual = 0.00117452
Iter #34 residual = 0.000871179
Iter #35 residual = 0.00291005
Iter #36 residual = 0.00167137
Iter #37 residual = 0.000755872
Iter #38 residual = 0.000766688
Iter #39 residual = 0.000662696
Iter #40 residual = 0.00135174
Iter #41 residual = 0.000856897
Iter #42 residual = 0.000903497
Iter #43 residual = 0.000727201
Iter #44 residual = 0.000742352
Iter #45 residual = 0.000558727
Iter #46 residual = 0.00034011
Iter #47 residual = 0.00030412
Iter #48 residual = 0.000314832
Iter #49 residual = 0.000358644
Iter #50 residual = 0.000498301
GPU: 50 iters: 10.8324 s: 2.01324 GB/s
GPUAMG:  Solving for pd, Initial residual = 0.00542031, Final residual = 0.000430399, No Iterations 50
[0] Building level 0
[4] Building level 0
[3] Building level 0
[2] Building level 0
[5] Building level 0
[1] Building level 0
[5] Building level 1
[0] Building level 1
[3] Building level 1
[4] Building level 1
[1] Building level 1
[2] Building level 1
[3] Building level 2
[4] Building level 2
[0] Building level 2
[5] Building level 2
[2] Building level 2
[1] Building level 2
[3] Building level 3
[4] Building level 3
[0] Building level 3
[2] Building level 3
[5] Building level 3
[1] Building level 3
[3] Building level 4
[2] Building level 4
[4] Building level 4
[0] Building level 4
[1] Building level 4
[5] Building level 4
[3] Building level 5
[2] Building level 5
[4] Building level 5
[0] Building level 5
[1] Building level 5
[3] Building level 6
[5] Building level 5
[2] Building level 6
[4] Building level 6
[3] Building level 7
[0] Building level 6
[2] Building level 7
[1] Building level 6
[3] Building level 8
[2] Building level 8
[3] Building level 9
[4] Building level 7
[2] Building level 9
[3] Building level 10
[0] Building level 7
[5] Building level 6
[3] Building level 11
[2] Building level 10
[3] Building level 12
[3] Building level 13
[3] Building level 14
[2] Building level 11
[2] Building level 12
[2] Building level 13
[2] Building level 14
[4] Building level 8
[1] Building level 7
[0] Building level 8
[4] Building level 9
[4] Building level 10
[0] Building level 9
[4] Building level 11
[4] Building level 12
[4] Building level 13
[4] Building level 14
[0] Building level 10
[5] Building level 7
[1] Building level 8
[0] Building level 11
[0] Building level 12
[0] Building level 13
[0] Building level 14
14 Level construction complete
[1] Building level 9
[1] Building level 10
[5] Building level 8
[1] Building level 11
[1] Building level 12
[1] Building level 13
[1] Building level 14
[5] Building level 9
[5] Building level 10
[5] Building level 11
[5] Building level 12
[5] Building level 13
[5] Building level 14
initial dot_x = 1.08669e+09
Iter #1 residual = 0.0128947
Iter #2 residual = 0.0114887
Iter #3 residual = 0.0283352
Iter #4 residual = 0.0171301
Iter #5 residual = 0.0101071
Iter #6 residual = 0.00812148
Iter #7 residual = 0.00549654
Iter #8 residual = 0.00605082
Iter #9 residual = 0.00423901
Iter #10 residual = 0.00194339
Iter #11 residual = 0.00406379
Iter #12 residual = 0.00350111
Iter #13 residual = 0.00447402
Iter #14 residual = 0.00337525
Iter #15 residual = 0.0145363
Iter #16 residual = 0.00868196
Iter #17 residual = 0.00390798
Iter #18 residual = 0.00528049
Iter #19 residual = 0.00328479
Iter #20 residual = 0.0044238
Iter #21 residual = 0.0029327
Iter #22 residual = 0.00260936
Iter #23 residual = 0.00203041
Iter #24 residual = 0.00252041
Iter #25 residual = 0.00190341
Iter #26 residual = 0.00537384
Iter #27 residual = 0.00351291
Iter #28 residual = 0.00516311
Iter #29 residual = 0.0034859
Iter #30 residual = 0.00436321
Iter #31 residual = 0.00251464
Iter #32 residual = 0.00318956
Iter #33 residual = 0.0018263
Iter #34 residual = 0.0029434
Iter #35 residual = 0.0016427
Iter #36 residual = 0.00264754
Iter #37 residual = 0.00211616
Iter #38 residual = 0.00372529
Iter #39 residual = 0.00237368
Iter #40 residual = 0.00186104
Iter #41 residual = 0.00146173
Iter #42 residual = 0.00250071
Iter #43 residual = 0.00203165
Iter #44 residual = 0.00462452
Iter #45 residual = 0.00289054
Iter #46 residual = 0.00156006
Iter #47 residual = 0.00182605
Iter #48 residual = 0.00124362
Iter #49 residual = 0.00100135
Iter #50 residual = 0.000905776
GPU: 50 iters: 10.881 s: 2.00426 GB/s
GPUAMG:  Solving for pd, Initial residual = 0.00537571, Final residual = 0.000452512, No Iterations 50
time step continuity errors : sum local = 4.59787e-08, global = -2.23285e-08, cumulative = -6.35467e-08
ExecutionTime = 210.58 s  ClockTime = 237 s

Courant Number mean: 1.65737e-05 max: 0.142083 velocity magnitude: 1.11002
Time = 0.004

MULES: Solving for alpha1
Liquid phase volume fraction = 0.00275427  Min(alpha1) = -1.96587e-29  Max(alpha1) = 1
MULES: Solving for alpha1
Liquid phase volume fraction = 0.00275428  Min(alpha1) = -4.03305e-30  Max(alpha1) = 1
[3] Building level 0
[5] Building level 0
[1] Building level 0
[4] Building level 0
[0] Building level 0
[2] Building level 0
[5] Building level 1
[0] Building level 1
Reconstruction on level 1
[3] Building level 1
[4] Building level 1
[1] Building level 1
[2] Building level 1
[3] Building level 2
[5] Building level 2
[4] Building level 2
[2] Building level 2
[3] Building level 3
[2] Building level 3
[3] Building level 4
[2] Building level 4
[5] Building level 3
[4] Building level 3
[3] Building level 5
[2] Building level 5
Creating AMGLevel 
[0] Building level 2
Reconstruction on level 2
[1] Building level 2
[3] Building level 6
[5] Building level 4
[4] Building level 4
[2] Building level 6
[3] Building level 7
[2] Building level 7
[3] Building level 8
[2] Building level 8
[3] Building level 9
[3] Building level 10
[5] Building level 5
[2] Building level 9
[3] Building level 11
[3] Building level 12
[4] Building level 5
[2] Building level 10
[3] Building level 13
[3] Building level 14
[2] Building level 11
[2] Building level 12
[2] Building level 13
[2] Building level 14
Creating AMGLevel 
[0] Building level 3
Reconstruction on level 3
[5] Building level 6
[4] Building level 6
[1] Building level 3
[5] Building level 7
[4] Building level 7
[5] Building level 8
[5] Building level 9
[5] Building level 10
[4] Building level 8
[5] Building level 11
[5] Building level 12
[5] Building level 13
[5] Building level 14
[4] Building level 9
[4] Building level 10
[4] Building level 11
[4] Building level 12
[4] Building level 13
[4] Building level 14
Creating AMGLevel 
[0] Building level 4
Reconstruction on level 4
[1] Building level 4
Creating AMGLevel 
[0] Building level 5
Reconstruction on level 5
[1] Building level 5
Creating AMGLevel 
[0] Building level 6
Reconstruction on level 6
Creating AMGLevel 
[0] Building level 7
Reconstruction on level 7
Creating AMGLevel 
[0] Building level 8
Reconstruction on level 8
[1] Building level 6
Creating AMGLevel 
[0] Building level 9
Reconstruction on level 9
Creating AMGLevel 
[0] Building level 10
Reconstruction on level 10
Creating AMGLevel 
[0] Building level 11
Reconstruction on level 11
Creating AMGLevel 
[0] Building level 12
Reconstruction on level 12
Creating AMGLevel 
[0] Building level 13
Reconstruction on level 13
Creating AMGLevel 
[0] Building level 14
Reconstruction on level 14
Creating AMGLevel 
14 Level construction complete
[1] Building level 7
[1] Building level 8
[1] Building level 9
[1] Building level 10
[1] Building level 11
[1] Building level 12
[1] Building level 13
[1] Building level 14
initial dot_x = 6.66935e+08
Iter #1 residual = 0.0162911
Iter #2 residual = 0.00954567
Iter #3 residual = 0.00693879
Iter #4 residual = 0.00878877
Iter #5 residual = 0.00710271
Iter #6 residual = 0.00770201
Iter #7 residual = 0.00578174
Iter #8 residual = 0.00522172
Iter #9 residual = 0.00611527
Iter #10 residual = 0.00999399
Iter #11 residual = 0.00742085
Iter #12 residual = 0.00554864
Iter #13 residual = 0.00715531
Iter #14 residual = 0.00591223
Iter #15 residual = 0.0169444
Iter #16 residual = 0.0096566
Iter #17 residual = 0.0106052
Iter #18 residual = 0.00665095
Iter #19 residual = 0.00221386
Iter #20 residual = 0.00168323
Iter #21 residual = 0.00129624
Iter #22 residual = 0.00153201
Iter #23 residual = 0.00106921
Iter #24 residual = 0.00267811
Iter #25 residual = 0.00157749
Iter #26 residual = 0.0017967
Iter #27 residual = 0.00149291
Iter #28 residual = 0.00126621
Iter #29 residual = 0.00108487
Iter #30 residual = 0.00178267
Iter #31 residual = 0.00375013
Iter #32 residual = 0.00184688
Iter #33 residual = 0.00159772
Iter #34 residual = 0.00116981
GPU: 34 iters: 7.56495 s: 1.96031 GB/s
GPUAMG:  Solving for pd, Initial residual = 0.0122275, Final residual = 0.000434571, No Iterations 34
[0] Building level 0
[1] Building level 0
[4] Building level 0
[3] Building level 0
[2] Building level 0
[5] Building level 0
[5] Building level 1
[0] Building level 1
[3] Building level 1
[4] Building level 1
[1] Building level 1
[2] Building level 1
[3] Building level 2
[0] Building level 2
[2] Building level 2
[5] Building level 2
[4] Building level 2
[1] Building level 2
[3] Building level 3
[2] Building level 3
[5] Building level 3
[0] Building level 3
[4] Building level 3
[1] Building level 3
[2] Building level 4
[3] Building level 4
[5] Building level 4
[0] Building level 4
[4] Building level 4
[1] Building level 4
[2] Building level 5
[3] Building level 5
[5] Building level 5
[0] Building level 5
[4] Building level 5
[1] Building level 5
[2] Building level 6
[3] Building level 6
[5] Building level 6
[3] Building level 7
[2] Building level 7
[0] Building level 6
[2] Building level 8
[3] Building level 8
[4] Building level 6
[1] Building level 6
[2] Building level 9
[3] Building level 9
[5] Building level 7
[3] Building level 10
[2] Building level 10
[0] Building level 7
[2] Building level 11
[3] Building level 11
[2] Building level 12
[3] Building level 12
[2] Building level 13
[2] Building level 14
[3] Building level 13
[3] Building level 14
[5] Building level 8
[0] Building level 8
[5] Building level 9
[4] Building level 7
[0] Building level 9
[5] Building level 10
[1] Building level 7
[5] Building level 11
[5] Building level 12
[0] Building level 10
[5] Building level 13
[5] Building level 14
[0] Building level 11
[0] Building level 12
[0] Building level 13
[0] Building level 14
14 Level construction complete
[4] Building level 8
[1] Building level 8
[4] Building level 9
[1] Building level 9
[4] Building level 10
[4] Building level 11
[1] Building level 10
[4] Building level 12
[4] Building level 13
[4] Building level 14
[1] Building level 11
[1] Building level 12
[1] Building level 13
[1] Building level 14
initial dot_x = 4.01226e+08
Iter #1 residual = 0.0101334
Iter #2 residual = 0.00610279
Iter #3 residual = 0.00473011
Iter #4 residual = 0.0035955
Iter #5 residual = 0.00159175
Iter #6 residual = 0.00334669
Iter #7 residual = 0.00164391
Iter #8 residual = 0.00118224
Iter #9 residual = 0.000978889
Iter #10 residual = 0.000522525
GPU: 10 iters: 2.3732 s: 1.83789 GB/s
GPUAMG:  Solving for pd, Initial residual = 0.00697968, Final residual = 0.000277782, No Iterations 10
[2] Building level 0
[1] Building level 0
[5] Building level 0
[3] Building level 0
[4] Building level 0
[0] Building level 0
[5] Building level 1
[0] Building level 1
[3] Building level 1
[4] Building level 1
[1] Building level 1
[2] Building level 1
[3] Building level 2
[4] Building level 2
[5] Building level 2
[0] Building level 2
[2] Building level 2
[1] Building level 2
[3] Building level 3
[5] Building level 3
[2] Building level 3
[4] Building level 3
[0] Building level 3
[1] Building level 3
[3] Building level 4
[2] Building level 4
[5] Building level 4
[4] Building level 4
[0] Building level 4
[1] Building level 4
[2] Building level 5
[3] Building level 5
[5] Building level 5
[4] Building level 5
[0] Building level 5
[1] Building level 5
[2] Building level 6
[3] Building level 6
[5] Building level 6
[2] Building level 7
[4] Building level 6
[0] Building level 6
[3] Building level 7
[2] Building level 8
[1] Building level 6
[5] Building level 7
[2] Building level 9
[3] Building level 8
[2] Building level 10
[0] Building level 7
[2] Building level 11
[2] Building level 12
[2] Building level 13
[2] Building level 14
[4] Building level 7
[3] Building level 9
[5] Building level 8
[3] Building level 10
[3] Building level 11
[3] Building level 12
[0] Building level 8
[3] Building level 13
[5] Building level 9
[3] Building level 14
[4] Building level 8
[5] Building level 10
[1] Building level 7
[5] Building level 11
[0] Building level 9
[5] Building level 12
[5] Building level 13
[5] Building level 14
[4] Building level 9
[0] Building level 10
[4] Building level 10
[0] Building level 11
[0] Building level 12
[4] Building level 11
[0] Building level 13
[0] Building level 14
14 Level construction complete
[4] Building level 12
[4] Building level 13
[4] Building level 14
[1] Building level 8
[1] Building level 9
[1] Building level 10
[1] Building level 11
[1] Building level 12
[1] Building level 13
[1] Building level 14
initial dot_x = 9.5062e+06
Iter #1 residual = 0.00864501
Iter #2 residual = 0.0138094
Iter #3 residual = 0.00649588
Iter #4 residual = 0.0117677
Iter #5 residual = 0.0109443
Iter #6 residual = 0.00467458
Iter #7 residual = 0.00411983
Iter #8 residual = 0.00270799
Iter #9 residual = 0.00279911
Iter #10 residual = 0.00229817
Iter #11 residual = 0.00558134
Iter #12 residual = 0.0036028
Iter #13 residual = 0.00565332
Iter #14 residual = 0.00524847
Iter #15 residual = 0.00315767
Iter #16 residual = 0.00929169
Iter #17 residual = 0.00526683
Iter #18 residual = 0.00332035
Iter #19 residual = 0.00436456
Iter #20 residual = 0.00424016
Iter #21 residual = 0.00141286
Iter #22 residual = 0.000927376
Iter #23 residual = 0.0010866
Iter #24 residual = 0.00280184
Iter #25 residual = 0.00189058
Iter #26 residual = 0.00539458
Iter #27 residual = 0.00309236
Iter #28 residual = 0.00181989
Iter #29 residual = 0.00117612
Iter #30 residual = 0.000590897
Iter #31 residual = 0.000829245
Iter #32 residual = 0.000652926
Iter #33 residual = 0.00106836
Iter #34 residual = 0.00129972
Iter #35 residual = 0.000591782
GMRES:  Solving for topLevelCorr, Initial residual = 0.874111, Final residual = 1.0354, No Iterations 200
Iter #36 residual = 0.000193398
GMRES:  Solving for topLevelCorr, Initial residual = 0.9448, Final residual = 1.26089, No Iterations 200
Iter #37 residual = 0.000458011
Iter #38 residual = 0.000645871
Iter #39 residual = 0.000858749
Iter #40 residual = 0.000583081
Iter #41 residual = 0.000786764
Iter #42 residual = 0.000603056
Iter #43 residual = 0.00367627
Iter #44 residual = 0.00222341
Iter #45 residual = 0.00138835
Iter #46 residual = 0.00114713
Iter #47 residual = 0.00056809
Iter #48 residual = 0.000706214
Iter #49 residual = 0.00060368
Iter #50 residual = 0.000446211
GPU: 50 iters: 10.9936 s: 1.98373 GB/s
GPUAMG:  Solving for pd, Initial residual = 0.00663216, Final residual = 0.000340406, No Iterations 50
time step continuity errors : sum local = 2.53967e-08, global = -1.05225e-08, cumulative = -7.40692e-08
ExecutionTime = 269.3 s  ClockTime = 297 s

Courant Number mean: 2.0176e-05 max: 0.0616686 velocity magnitude: 0.481786
Time = 0.005

MULES: Solving for alpha1
Liquid phase volume fraction = 0.00275429  Min(alpha1) = -1.00284e-29  Max(alpha1) = 1
MULES: Solving for alpha1
Liquid phase volume fraction = 0.00275429  Min(alpha1) = -2.18955e-32  Max(alpha1) = 1
[4] Building level 0
[2] Building level 0
[1] Building level 0
[5] Building level 0
[3] Building level 0
[0] Building level 0
[5] Building level 1
[3] Building level 1
[0] Building level 1
Reconstruction on level 1
[2] Building level 1
[4] Building level 1
[1] Building level 1
[3] Building level 2
[4] Building level 2
[2] Building level 2
[3] Building level 3
[2] Building level 3
[2] Building level 4
[3] Building level 4
[4] Building level 3
[2] Building level 5
[3] Building level 5
Creating AMGLevel 
[0] Building level 2
Reconstruction on level 2
[5] Building level 2
[1] Building level 2
[4] Building level 4
[3] Building level 6
[2] Building level 6
[3] Building level 7
[2] Building level 7
[3] Building level 8
[2] Building level 8
[3] Building level 9
[2] Building level 9
[3] Building level 10
[2] Building level 10
[3] Building level 11
[2] Building level 11
[3] Building level 12
[2] Building level 12
[3] Building level 13
[2] Building level 13
[3] Building level 14
[4] Building level 5
[2] Building level 14
Creating AMGLevel 
[0] Building level 3
Reconstruction on level 3
[5] Building level 3
[4] Building level 6
[1] Building level 3
[4] Building level 7
[4] Building level 8
[4] Building level 9
[4] Building level 10
[4] Building level 11
[4] Building level 12
[4] Building level 13
[4] Building level 14
Creating AMGLevel 
[0] Building level 4
Reconstruction on level 4
[5] Building level 4
[1] Building level 4
Creating AMGLevel 
[0] Building level 5
Reconstruction on level 5
[5] Building level 5
[1] Building level 5
Creating AMGLevel 
[0] Building level 6
Reconstruction on level 6
[5] Building level 6
Creating AMGLevel 
[0] Building level 7
Reconstruction on level 7
[5] Building level 7
Creating AMGLevel 
[0] Building level 8
Reconstruction on level 8
[1] Building level 6
[5] Building level 8
Creating AMGLevel 
[0] Building level 9
Reconstruction on level 9
Creating AMGLevel 
[5] Building level 9
[0] Building level 10
Reconstruction on level 10
Creating AMGLevel 
[0] Building level 11
Reconstruction on level 11
[5] Building level 10
Creating AMGLevel 
[0] Building level 12
Reconstruction on level 12
Creating AMGLevel 
[0] Building level 13
Reconstruction on level 13
[5] Building level 11
Creating AMGLevel 
[0] Building level 14
Reconstruction on level 14
Creating AMGLevel 
14 Level construction complete
[5] Building level 12
[5] Building level 13
[5] Building level 14
[1] Building level 7
[1] Building level 8
[1] Building level 9
[1] Building level 10
[1] Building level 11
[1] Building level 12
[1] Building level 13
[1] Building level 14
initial dot_x = 8.93365e+08
Iter #1 residual = 0.0162648
Iter #2 residual = 0.0125656
Iter #3 residual = 0.0120705
Iter #4 residual = 0.00833704
Iter #5 residual = 0.0253606
Iter #6 residual = 0.0155694
Iter #7 residual = 0.0145706
Iter #8 residual = 0.00948218
Iter #9 residual = 0.00600022
Iter #10 residual = 0.0049304
Iter #11 residual = 0.0126021
Iter #12 residual = 0.0084693
Iter #13 residual = 0.00811651
Iter #14 residual = 0.00688519
Iter #15 residual = 0.00457173
Iter #16 residual = 0.00408289
Iter #17 residual = 0.00339375
Iter #18 residual = 0.00564994
Iter #19 residual = 0.00473661
Iter #20 residual = 0.00623635
Iter #21 residual = 0.00311199
Iter #22 residual = 0.00123229
Iter #23 residual = 0.00101508
Iter #24 residual = 0.000640042
Iter #25 residual = 0.00152067
Iter #26 residual = 0.000950601
Iter #27 residual = 0.00198898
Iter #28 residual = 0.00180773
GPU: 28 iters: 6.07732 s: 2.00955 GB/s
GPUAMG:  Solving for pd, Initial residual = 0.0108765, Final residual = 0.000498635, No Iterations 28
[5] Building level 0
[3] Building level 0
[1] Building level 0
[4] Building level 0
[0] Building level 0
[2] Building level 0
[5] Building level 1
[3] Building level 1
[0] Building level 1
[4] Building level 1
[2] Building level 1
[1] Building level 1
[3] Building level 2
[0] Building level 2
[2] Building level 2
[4] Building level 2
[5] Building level 2
[1] Building level 2
[3] Building level 3
[0] Building level 3
[2] Building level 3
[5] Building level 3
[4] Building level 3
[1] Building level 3
[3] Building level 4
[0] Building level 4
[2] Building level 4
[4] Building level 4
[5] Building level 4
[1] Building level 4
[3] Building level 5
[0] Building level 5
[2] Building level 5
[4] Building level 5
[5] Building level 5
[3] Building level 6
[1] Building level 5
[0] Building level 6
[2] Building level 6
[3] Building level 7
[0] Building level 7
[3] Building level 8
[0] Building level 8
[4] Building level 6
[5] Building level 6
[2] Building level 7
[3] Building level 9
[0] Building level 9
[1] Building level 6
[3] Building level 10
[0] Building level 10
[3] Building level 11
[0] Building level 11
[0] Building level 12
[3] Building level 12
[0] Building level 13
[3] Building level 13
[0] Building level 14
14 Level construction complete
[3] Building level 14
[2] Building level 8
[2] Building level 9
[5] Building level 7
[2] Building level 10
[2] Building level 11
[4] Building level 7
[2] Building level 12
[2] Building level 13
[2] Building level 14
[1] Building level 7
[5] Building level 8
[4] Building level 8
[5] Building level 9
[4] Building level 9
[1] Building level 8
[5] Building level 10
[5] Building level 11
[4] Building level 10
[5] Building level 12
[5] Building level 13
[5] Building level 14
[4] Building level 11
[4] Building level 12
[4] Building level 13
[4] Building level 14
[1] Building level 9
[1] Building level 10
[1] Building level 11
[1] Building level 12
[1] Building level 13
[1] Building level 14
initial dot_x = 7.49096e+08
Iter #1 residual = 0.00223622
Iter #2 residual = 0.00253924
Iter #3 residual = 0.00155079
Iter #4 residual = 0.00318003
Iter #5 residual = 0.00555515
Iter #6 residual = 0.00384217
Iter #7 residual = 0.00107202
Iter #8 residual = 0.000510444
Iter #9 residual = 0.000419325
Iter #10 residual = 0.00122749
Iter #11 residual = 0.000767392
Iter #12 residual = 0.000668927
Iter #13 residual = 0.000544402
Iter #14 residual = 0.000360018
Iter #15 residual = 0.000367513
Iter #16 residual = 0.000673951
Iter #17 residual = 0.000428902
Iter #18 residual = 0.00145308
Iter #19 residual = 0.000791837
Iter #20 residual = 0.000415482
Iter #21 residual = 0.000357759
GPU: 21 iters: 4.60976 s: 1.98698 GB/s
GPUAMG:  Solving for pd, Initial residual = 0.00686967, Final residual = 0.000250496, No Iterations 21
[2] Building level 0
[0] Building level 0
[4] Building level 0
[1] Building level 0
[5] Building level 0
[3] Building level 0
[5] Building level 1
[0] Building level 1
[3] Building level 1
[4] Building level 1
[1] Building level 1
[2] Building level 1
[3] Building level 2
[0] Building level 2
[4] Building level 2
[5] Building level 2
[2] Building level 2
[1] Building level 2
[3] Building level 3
[0] Building level 3
[2] Building level 3
[4] Building level 3
[5] Building level 3
[1] Building level 3
[3] Building level 4
[0] Building level 4
[2] Building level 4
[4] Building level 4
[1] Building level 4
[5] Building level 4
[3] Building level 5
[0] Building level 5
[2] Building level 5
[4] Building level 5
[1] Building level 5
[5] Building level 5
[0] Building level 6
[3] Building level 6
[2] Building level 6
[0] Building level 7
[3] Building level 7
[4] Building level 6
[1] Building level 6
[0] Building level 8
[3] Building level 8
[0] Building level 9
[2] Building level 7
[5] Building level 6
[0] Building level 10
[3] Building level 9
[0] Building level 11
[0] Building level 12
[0] Building level 13
[0] Building level 14
14 Level construction complete
[3] Building level 10
[3] Building level 11
[3] Building level 12
[4] Building level 7
[3] Building level 13
[3] Building level 14
[2] Building level 8
[1] Building level 7
[2] Building level 9
[4] Building level 8
[2] Building level 10
[2] Building level 11
[5] Building level 7
[2] Building level 12
[2] Building level 13
[2] Building level 14
[4] Building level 9
[1] Building level 8
[4] Building level 10
[4] Building level 11
[4] Building level 12
[4] Building level 13
[5] Building level 8
[4] Building level 14
[1] Building level 9
[1] Building level 10
[1] Building level 11
[5] Building level 9
[1] Building level 12
[1] Building level 13
[1] Building level 14
[5] Building level 10
[5] Building level 11
[5] Building level 12
[5] Building level 13
[5] Building level 14
initial dot_x = 4.05873e+08
Iter #1 residual = 0.0050951
Iter #2 residual = 0.00309122
Iter #3 residual = 0.00255586
Iter #4 residual = 0.00212108
Iter #5 residual = 0.000949629
Iter #6 residual = 0.00185093
Iter #7 residual = 0.00143971
Iter #8 residual = 0.00257043
Iter #9 residual = 0.00156172
Iter #10 residual = 0.000654978
Iter #11 residual = 0.000752764
Iter #12 residual = 0.000584077
Iter #13 residual = 0.000650809
Iter #14 residual = 0.00196391
Iter #15 residual = 0.00101368
Iter #16 residual = 0.000617672
Iter #17 residual = 0.000445716
Iter #18 residual = 0.00027464
Iter #19 residual = 0.000149959
Iter #20 residual = 0.000104223
Iter #21 residual = 7.45977e-05
Iter #22 residual = 7.19542e-05
Iter #23 residual = 5.61771e-05
Iter #24 residual = 6.71041e-05
Iter #25 residual = 0.000136925
Iter #26 residual = 7.60753e-05
Iter #27 residual = 8.24099e-05
Iter #28 residual = 7.02981e-05
Iter #29 residual = 4.95506e-05
Iter #30 residual = 0.000114018
Iter #31 residual = 6.68888e-05
Iter #32 residual = 9.25e-05
Iter #33 residual = 8.20524e-05
Iter #34 residual = 3.33005e-05
Iter #35 residual = 5.56364e-05
Iter #36 residual = 3.48701e-05
Iter #37 residual = 3.07631e-05
Iter #38 residual = 6.97486e-05
Iter #39 residual = 6.88401e-05
Iter #40 residual = 3.10557e-05
Iter #41 residual = 2.99222e-05
Iter #42 residual = 2.37209e-05
Iter #43 residual = 2.82758e-05
Iter #44 residual = 2.49092e-05
Iter #45 residual = 3.30083e-05
Iter #46 residual = 2.9772e-05
Iter #47 residual = 4.22313e-05
Iter #48 residual = 3.32408e-05
Iter #49 residual = 9.60345e-05
Iter #50 residual = 5.91194e-05
GPU: 50 iters: 10.695 s: 2.03912 GB/s
GPUAMG:  Solving for pd, Initial residual = 0.00657, Final residual = 3.28161e-05, No Iterations 50
time step continuity errors : sum local = 4.10347e-09, global = -2.4771e-09, cumulative = -7.65463e-08
ExecutionTime = 328.78 s  ClockTime = 357 s

Courant Number mean: 2.43944e-05 max: 0.0199863 velocity magnitude: 0.182611
Time = 0.006

MULES: Solving for alpha1
Liquid phase volume fraction = 0.00275429  Min(alpha1) = -7.17753e-32  Max(alpha1) = 1
MULES: Solving for alpha1
Liquid phase volume fraction = 0.00275429  Min(alpha1) = -1.24562e-30  Max(alpha1) = 1
[1] Building level 0
[3] Building level 0
[4] Building level 0
[5] Building level 0
[2] Building level 0
[0] Building level 0
[0] Building level 1
Reconstruction on level 1
[5] Building level 1
[3] Building level 1
[4] Building level 1
[2] Building level 1
[1] Building level 1
[3] Building level 2
[2] Building level 2
[3] Building level 3
[2] Building level 3
[3] Building level 4
[2] Building level 4
[3] Building level 5
[2] Building level 5
Creating AMGLevel 
[0] Building level 2
Reconstruction on level 2
[4] Building level 2
[5] Building level 2
[1] Building level 2
[2] Building level 6
[3] Building level 6
[2] Building level 7
[3] Building level 7
[2] Building level 8
[3] Building level 8
[2] Building level 9
[3] Building level 9
[2] Building level 10
[3] Building level 10
[2] Building level 11
[3] Building level 11
[2] Building level 12
[3] Building level 12
[2] Building level 13
[3] Building level 13
[2] Building level 14
[3] Building level 14
Creating AMGLevel 
[0] Building level 3
Reconstruction on level 3
[5] Building level 3
[4] Building level 3
[1] Building level 3
Creating AMGLevel 
[0] Building level 4
Reconstruction on level 4
[5] Building level 4
[4] Building level 4
[1] Building level 4
Creating AMGLevel 
[0] Building level 5
Reconstruction on level 5
[5] Building level 5
[4] Building level 5
[1] Building level 5
Creating AMGLevel 
[0] Building level 6
Reconstruction on level 6
[5] Building level 6
[4] Building level 6
Creating AMGLevel 
[0] Building level 7
Reconstruction on level 7
[5] Building level 7
Creating AMGLevel 
[0] Building level 8
Reconstruction on level 8
[5] Building level 8
[1] Building level 6
Creating AMGLevel 
[0] Building level 9
Reconstruction on level 9
[4] Building level 7
[5] Building level 9
Creating AMGLevel 
[0] Building level 10
Reconstruction on level 10
Creating AMGLevel 
[0] Building level 11
Reconstruction on level 11
[5] Building level 10
Creating AMGLevel 
[0] Building level 12
Reconstruction on level 12
Creating AMGLevel 
[0] Building level 13
Reconstruction on level 13
[5] Building level 11
Creating AMGLevel 
[0] Building level 14
Reconstruction on level 14
Creating AMGLevel 
14 Level construction complete
[5] Building level 12
[5] Building level 13
[4] Building level 8
[5] Building level 14
[4] Building level 9
[1] Building level 7
[4] Building level 10
[4] Building level 11
[4] Building level 12
[4] Building level 13
[4] Building level 14
[1] Building level 8
[1] Building level 9
[1] Building level 10
[1] Building level 11
[1] Building level 12
[1] Building level 13
[1] Building level 14
initial dot_x = 8.19605e+08
Iter #1 residual = 0.0160198
Iter #2 residual = 0.0121902
Iter #3 residual = 0.00901695
Iter #4 residual = 0.00910851
Iter #5 residual = 0.00594487
Iter #6 residual = 0.00762569
Iter #7 residual = 0.00411962
Iter #8 residual = 0.00878253
Iter #9 residual = 0.00736194
Iter #10 residual = 0.00461097
Iter #11 residual = 0.0095992
Iter #12 residual = 0.00504436
Iter #13 residual = 0.00721171
Iter #14 residual = 0.00720787
Iter #15 residual = 0.00715407
Iter #16 residual = 0.00736748
Iter #17 residual = 0.00563052
Iter #18 residual = 0.00606914
Iter #19 residual = 0.00250657
Iter #20 residual = 0.00407664
Iter #21 residual = 0.00576099
Iter #22 residual = 0.00294981
Iter #23 residual = 0.00486701
Iter #24 residual = 0.0041659
Iter #25 residual = 0.00302968
Iter #26 residual = 0.00255426
Iter #27 residual = 0.00297865
Iter #28 residual = 0.0024551
Iter #29 residual = 0.00359102
Iter #30 residual = 0.00341592
Iter #31 residual = 0.00270129
Iter #32 residual = 0.00357916
Iter #33 residual = 0.00207997
Iter #34 residual = 0.00442368
Iter #35 residual = 0.00517767
Iter #36 residual = 0.00154113
Iter #37 residual = 0.00339492
Iter #38 residual = 0.00269134
Iter #39 residual = 0.00382425
Iter #40 residual = 0.00185317
Iter #41 residual = 0.00240787
Iter #42 residual = 0.00163132
Iter #43 residual = 0.00269978
Iter #44 residual = 0.00207971
Iter #45 residual = 0.00440871
Iter #46 residual = 0.00377909
Iter #47 residual = 0.000928296
Iter #48 residual = 0.00388975
Iter #49 residual = 0.00159989
Iter #50 residual = 0.00308769
GPU: 50 iters: 10.94 s: 1.99345 GB/s
GPUAMG:  Solving for pd, Initial residual = 0.011456, Final residual = 0.00474524, No Iterations 50
[4] Building level 0
[1] Building level 0
[5] Building level 0
[0] Building level 0
[3] Building level 0
[2] Building level 0
[5] Building level 1
[0] Building level 1
[3] Building level 1
[2] Building level 1
[4] Building level 1
[1] Building level 1
[3] Building level 2
[5] Building level 2
[0] Building level 2
[2] Building level 2
[1] Building level 2
[4] Building level 2
[3] Building level 3
[5] Building level 3
[0] Building level 3
[2] Building level 3
[1] Building level 3
[4] Building level 3
[3] Building level 4
[2] Building level 4
[0] Building level 4
[5] Building level 4
[4] Building level 4
[1] Building level 4
[3] Building level 5
[2] Building level 5
[0] Building level 5
[3] Building level 6
[5] Building level 5
[3] Building level 7
[4] Building level 5
[2] Building level 6
[0] Building level 6
[1] Building level 5
[3] Building level 8
[3] Building level 9
[3] Building level 10
[3] Building level 11
[3] Building level 12
[3] Building level 13
[3] Building level 14
[5] Building level 6
[2] Building level 7
[0] Building level 7
[2] Building level 8
[0] Building level 8
[2] Building level 9
[4] Building level 6
[0] Building level 9
[2] Building level 10
[5] Building level 7
[2] Building level 11
[0] Building level 10
[2] Building level 12
[2] Building level 13
[2] Building level 14
[0] Building level 11
[1] Building level 6
[0] Building level 12
[0] Building level 13
[0] Building level 14
14 Level construction complete
[5] Building level 8
[5] Building level 9
[5] Building level 10
[4] Building level 7
[5] Building level 11
[5] Building level 12
[5] Building level 13
[5] Building level 14
[1] Building level 7
[4] Building level 8
[1] Building level 8
[4] Building level 9
[4] Building level 10
[4] Building level 11
[1] Building level 9
[4] Building level 12
[4] Building level 13
[4] Building level 14
[1] Building level 10
[1] Building level 11
[1] Building level 12
[1] Building level 13
[1] Building level 14
initial dot_x = 2.14164e+08
Iter #1 residual = 0.00530238
Iter #2 residual = 0.00271074
Iter #3 residual = 0.00170488
Iter #4 residual = 0.00108403
GPU: 4 iters: 1.06876 s: 1.63242 GB/s
GPUAMG:  Solving for pd, Initial residual = 0.0104429, Final residual = 0.00050895, No Iterations 4
[0] Building level 0
[5] Building level 0
[3] Building level 0
[1] Building level 0
[2] Building level 0
[4] Building level 0
[5] Building level 1
[0] Building level 1
[3] Building level 1
[4] Building level 1
[1] Building level 1
[2] Building level 1
[3] Building level 2
[5] Building level 2
[2] Building level 2
[0] Building level 2
[4] Building level 2
[1] Building level 2
[3] Building level 3
[5] Building level 3
[2] Building level 3
[0] Building level 3
[1] Building level 3
[4] Building level 3
[3] Building level 4
[2] Building level 4
[0] Building level 4
[5] Building level 4
[4] Building level 4
[1] Building level 4
[3] Building level 5
[2] Building level 5
[0] Building level 5
[5] Building level 5
[3] Building level 6
[4] Building level 5
[2] Building level 6
[1] Building level 5
[3] Building level 7
[0] Building level 6
[3] Building level 8
[3] Building level 9
[5] Building level 6
[2] Building level 7
[3] Building level 10
[3] Building level 11
[3] Building level 12
[3] Building level 13
[3] Building level 14
[2] Building level 8
[0] Building level 7
[4] Building level 6
[2] Building level 9
[2] Building level 10
[1] Building level 6
[5] Building level 7
[2] Building level 11
[0] Building level 8
[2] Building level 12
[2] Building level 13
[2] Building level 14
[0] Building level 9
[5] Building level 8
[0] Building level 10
[0] Building level 11
[0] Building level 12
[0] Building level 13
[0] Building level 14
14 Level construction complete
[5] Building level 9
[4] Building level 7
[5] Building level 10
[1] Building level 7
[5] Building level 11
[5] Building level 12
[5] Building level 13
[5] Building level 14
[4] Building level 8
[1] Building level 8
[4] Building level 9
[1] Building level 9
[4] Building level 10
[4] Building level 11
[4] Building level 12
[1] Building level 10
[4] Building level 13
[4] Building level 14
[1] Building level 11
[1] Building level 12
[1] Building level 13
[1] Building level 14
initial dot_x = 2.09737e+08
Iter #1 residual = 0.00323731
Iter #2 residual = 0.00120342
Iter #3 residual = 0.00162119
Iter #4 residual = 0.00113203
Iter #5 residual = 0.000989248
Iter #6 residual = 0.000451492
Iter #7 residual = 0.000699172
Iter #8 residual = 0.00145759
Iter #9 residual = 0.00122445
Iter #10 residual = 0.000679528
Iter #11 residual = 0.000612239
Iter #12 residual = 0.000677562
Iter #13 residual = 0.000357915
Iter #14 residual = 0.000643016
Iter #15 residual = 0.00033566
GMRES:  Solving for topLevelCorr, Initial residual = 0.816766, Final residual = 0.909035, No Iterations 200
Iter #16 residual = 0.000106173
GMRES:  Solving for topLevelCorr, Initial residual = 0.930563, Final residual = 1.09297, No Iterations 200
Iter #17 residual = 0.000136282
Iter #18 residual = 0.000631933
Iter #19 residual = 0.000693782
Iter #20 residual = 0.000200291
Iter #21 residual = 0.000335182
Iter #22 residual = 0.000323918
Iter #23 residual = 0.000469733
Iter #24 residual = 0.000349117
Iter #25 residual = 0.00037488
Iter #26 residual = 0.000245319
Iter #27 residual = 0.000585081
Iter #28 residual = 0.000242912
Iter #29 residual = 0.000393904
Iter #30 residual = 0.000264719
Iter #31 residual = 0.000204522
Iter #32 residual = 0.000115529
Iter #33 residual = 0.000217103
Iter #34 residual = 0.000334931
Iter #35 residual = 0.000132082
GMRES:  Solving for topLevelCorr, Initial residual = 0.882782, Final residual = 1.0122, No Iterations 200
Iter #36 residual = 7.29984e-05
GMRES:  Solving for topLevelCorr, Initial residual = 0.88222, Final residual = 1.02875, No Iterations 200
Iter #37 residual = 3.75959e-05
GMRES:  Solving for topLevelCorr, Initial residual = 0.931296, Final residual = 1.18093, No Iterations 200
Iter #38 residual = 6.09602e-05
Iter #39 residual = 0.000502858
Iter #40 residual = 0.00050042
Iter #41 residual = 0.00013122
Iter #42 residual = 0.000620896
Iter #43 residual = 0.000287956
Iter #44 residual = 0.000195151
Iter #45 residual = 0.000335114
Iter #46 residual = 0.000128926
Iter #47 residual = 0.000156414
Iter #48 residual = 8.66633e-05
Iter #49 residual = 0.000144382
Iter #50 residual = 0.000238035
GPU: 50 iters: 10.942 s: 1.99308 GB/s
GPUAMG:  Solving for pd, Initial residual = 0.00688609, Final residual = 0.000158072, No Iterations 50
time step continuity errors : sum local = 7.77731e-09, global = 1.28742e-11, cumulative = -7.65334e-08
ExecutionTime = 389.96 s  ClockTime = 419 s

Courant Number mean: 2.93359e-05 max: 0.0111123 velocity magnitude: 0.119405
Time = 0.007

MULES: Solving for alpha1
Liquid phase volume fraction = 0.00275429  Min(alpha1) = -2.66647e-29  Max(alpha1) = 1
MULES: Solving for alpha1
Liquid phase volume fraction = 0.00275429  Min(alpha1) = -1.11417e-30  Max(alpha1) = 1
[2] Building level 0
[4] Building level 0
[1] Building level 0
[0] Building level 0
[3] Building level 0
[5] Building level 0
[0] Building level 1
Reconstruction on level 1
[5] Building level 1
[3] Building level 1
[4] Building level 1
[1] Building level 1
[2] Building level 1
[3] Building level 2
[2] Building level 2
[3] Building level 3
[2] Building level 3
[3] Building level 4
[2] Building level 4
[3] Building level 5
[2] Building level 5
Creating AMGLevel 
[4] Building level 2
[0] Building level 2
Reconstruction on level 2
[5] Building level 2
[1] Building level 2
[3] Building level 6
[2] Building level 6
[3] Building level 7
[2] Building level 7
[3] Building level 8
[2] Building level 8
[3] Building level 9
[2] Building level 9
[3] Building level 10
[2] Building level 10
[3] Building level 11
[3] Building level 12
[2] Building level 11
[3] Building level 13
[2] Building level 12
[3] Building level 14
[2] Building level 13
[2] Building level 14
Creating AMGLevel 
[0] Building level 3
Reconstruction on level 3
[5] Building level 3
[4] Building level 3
[1] Building level 3
Creating AMGLevel 
[0] Building level 4
Reconstruction on level 4
[5] Building level 4
[4] Building level 4
[1] Building level 4
Creating AMGLevel 
[0] Building level 5
Reconstruction on level 5
[5] Building level 5
[4] Building level 5
Creating AMGLevel 
[0] Building level 6
Reconstruction on level 6
[1] Building level 5
[5] Building level 6
[4] Building level 6
Creating AMGLevel 
[0] Building level 7
Reconstruction on level 7
[5] Building level 7
Creating AMGLevel 
[0] Building level 8
Reconstruction on level 8
[5] Building level 8
[4] Building level 7
Creating AMGLevel 
[0] Building level 9
Reconstruction on level 9
[1] Building level 6
Creating AMGLevel 
[0] Building level 10
Reconstruction on level 10
[5] Building level 9
Creating AMGLevel 
[0] Building level 11
Reconstruction on level 11
Creating AMGLevel 
[0] Building level 12
Reconstruction on level 12
[5] Building level 10
Creating AMGLevel 
[0] Building level 13
Reconstruction on level 13
Creating AMGLevel 
[0] Building level 14
Reconstruction on level 14
Creating AMGLevel 
14 Level construction complete
[4] Building level 8
[5] Building level 11
[5] Building level 12
[5] Building level 13
[5] Building level 14
[4] Building level 9
[4] Building level 10
[4] Building level 11
[4] Building level 12
[1] Building level 7
[4] Building level 13
[4] Building level 14
[1] Building level 8
[1] Building level 9
[1] Building level 10
[1] Building level 11
[1] Building level 12
[1] Building level 13
[1] Building level 14
initial dot_x = 5.17034e+08
Iter #1 residual = 0.0293242
Iter #2 residual = 0.0185232
Iter #3 residual = 0.0175617
Iter #4 residual = 0.0106133
Iter #5 residual = 0.0119497
Iter #6 residual = 0.00888379
Iter #7 residual = 0.00704813
Iter #8 residual = 0.00504942
Iter #9 residual = 0.00338144
Iter #10 residual = 0.00260725
Iter #11 residual = 0.00416622
Iter #12 residual = 0.00288781
Iter #13 residual = 0.00700117
Iter #14 residual = 0.0042313
Iter #15 residual = 0.00147168
Iter #16 residual = 0.00190874
Iter #17 residual = 0.000898013
Iter #18 residual = 0.00118964
Iter #19 residual = 0.000647158
GPU: 19 iters: 4.05838 s: 2.04199 GB/s
GPUAMG:  Solving for pd, Initial residual = 0.0111442, Final residual = 0.000549077, No Iterations 19
[4] Building level 0
[1] Building level 0
[0] Building level 0
[3] Building level 0
[2] Building level 0
[5] Building level 0
[5] Building level 1
[3] Building level 1
[0] Building level 1
[4] Building level 1
[2] Building level 1
[1] Building level 1
[3] Building level 2
[4] Building level 2
[5] Building level 2
[2] Building level 2
[0] Building level 2
[1] Building level 2
[3] Building level 3
[4] Building level 3
[2] Building level 3
[0] Building level 3
[5] Building level 3
[1] Building level 3
[3] Building level 4
[2] Building level 4
[0] Building level 4
[5] Building level 4
[4] Building level 4
[1] Building level 4
[3] Building level 5
[2] Building level 5
[0] Building level 5
[5] Building level 5
[4] Building level 5
[3] Building level 6
[2] Building level 6
[1] Building level 5
[0] Building level 6
[3] Building level 7
[5] Building level 6
[3] Building level 8
[2] Building level 7
[4] Building level 6
[3] Building level 9
[0] Building level 7
[3] Building level 10
[3] Building level 11
[3] Building level 12
[2] Building level 8
[3] Building level 13
[3] Building level 14
[5] Building level 7
[2] Building level 9
[0] Building level 8
[2] Building level 10
[1] Building level 6
[2] Building level 11
[2] Building level 12
[0] Building level 9
[2] Building level 13
[2] Building level 14
[4] Building level 7
[0] Building level 10
[5] Building level 8
[0] Building level 11
[0] Building level 12
[0] Building level 13
[0] Building level 14
14 Level construction complete
[5] Building level 9
[5] Building level 10
[4] Building level 8
[5] Building level 11
[5] Building level 12
[5] Building level 13
[5] Building level 14
[4] Building level 9
[1] Building level 7
[4] Building level 10
[4] Building level 11
[4] Building level 12
[4] Building level 13
[4] Building level 14
[1] Building level 8
[1] Building level 9
[1] Building level 10
[1] Building level 11
[1] Building level 12
[1] Building level 13
[1] Building level 14
initial dot_x = 2.72567e+08
Iter #1 residual = 0.00207293
Iter #2 residual = 0.00376665
Iter #3 residual = 0.00240812
Iter #4 residual = 0.00091182
Iter #5 residual = 0.00171987
Iter #6 residual = 0.000967839
Iter #7 residual = 0.000739549
Iter #8 residual = 0.00137944
Iter #9 residual = 0.00104639
Iter #10 residual = 0.000559301
Iter #11 residual = 0.000643744
Iter #12 residual = 0.000323994
Iter #13 residual = 0.000553429
GPU: 13 iters: 2.82874 s: 2.00449 GB/s
GPUAMG:  Solving for pd, Initial residual = 0.00611391, Final residual = 0.000295666, No Iterations 13
[0] Building level 0
[2] Building level 0
[3] Building level 0
[5] Building level 0
[1] Building level 0
[4] Building level 0
[5] Building level 1
[0] Building level 1
[3] Building level 1
[2] Building level 1
[4] Building level 1
[1] Building level 1
[3] Building level 2
[5] Building level 2
[2] Building level 2
[0] Building level 2
[4] Building level 2
[1] Building level 2
[3] Building level 3
[2] Building level 3
[0] Building level 3
[4] Building level 3
[5] Building level 3
[1] Building level 3
[3] Building level 4
[2] Building level 4
[0] Building level 4
[5] Building level 4
[4] Building level 4
[1] Building level 4
[3] Building level 5
[2] Building level 5
[0] Building level 5
[5] Building level 5
[4] Building level 5
[2] Building level 6
[3] Building level 6
[1] Building level 5
[0] Building level 6
[5] Building level 6
[3] Building level 7
[2] Building level 7
[4] Building level 6
[3] Building level 8
[0] Building level 7
[2] Building level 8
[3] Building level 9
[5] Building level 7
[2] Building level 9
[3] Building level 10
[3] Building level 11
[3] Building level 12
[2] Building level 10
[0] Building level 8
[3] Building level 13
[3] Building level 14
[2] Building level 11
[2] Building level 12
[2] Building level 13
[2] Building level 14
[1] Building level 6
[4] Building level 7
[0] Building level 9
[5] Building level 8
[0] Building level 10
[0] Building level 11
[0] Building level 12
[0] Building level 13
[0] Building level 14
[5] Building level 9
14 Level construction complete
[5] Building level 10
[4] Building level 8
[5] Building level 11
[5] Building level 12
[5] Building level 13
[5] Building level 14
[4] Building level 9
[1] Building level 7
[4] Building level 10
[4] Building level 11
[4] Building level 12
[4] Building level 13
[4] Building level 14
[1] Building level 8
[1] Building level 9
[1] Building level 10
[1] Building level 11
[1] Building level 12
[1] Building level 13
[1] Building level 14
initial dot_x = 5.30398e+08
Iter #1 residual = 0.00151071
Iter #2 residual = 0.00118954
Iter #3 residual = 0.00122228
Iter #4 residual = 0.000760457
Iter #5 residual = 0.00122894
Iter #6 residual = 0.00189637
Iter #7 residual = 0.00093116
Iter #8 residual = 0.00120291
Iter #9 residual = 0.000823076
Iter #10 residual = 0.000834254
Iter #11 residual = 0.000487604
Iter #12 residual = 0.00030856
Iter #13 residual = 0.000188155
Iter #14 residual = 8.93268e-05
Iter #15 residual = 7.12026e-05
Iter #16 residual = 9.66066e-05
Iter #17 residual = 5.15264e-05
Iter #18 residual = 5.85804e-05
Iter #19 residual = 5.40858e-05
Iter #20 residual = 7.80113e-05
Iter #21 residual = 4.43106e-05
Iter #22 residual = 5.49696e-05
Iter #23 residual = 3.36003e-05
Iter #24 residual = 1.19095e-05
Iter #25 residual = 1.3636e-05
Iter #26 residual = 7.32145e-06
Iter #27 residual = 5.766e-06
Iter #28 residual = 5.71361e-06
Iter #29 residual = 3.46057e-06
Iter #30 residual = 2.98775e-06
Iter #31 residual = 1.82107e-06
Iter #32 residual = 1.05478e-06
Iter #33 residual = 7.93602e-07
Iter #34 residual = 6.94203e-07
Iter #35 residual = 4.28689e-07
Iter #36 residual = 3.66597e-07
Iter #37 residual = 2.39328e-07
Iter #38 residual = 2.16076e-07
Iter #39 residual = 1.3416e-07
Iter #40 residual = 1.0616e-07
Iter #41 residual = 1.12748e-07
GPU: 41 iters: 8.50044 s: 2.10375 GB/s
GPUAMG:  Solving for pd, Initial residual = 0.0057343, Final residual = 5.20013e-08, No Iterations 41
time step continuity errors : sum local = 1.44496e-10, global = 1.42041e-10, cumulative = -7.63914e-08
ExecutionTime = 443.76 s  ClockTime = 473 s

Courant Number mean: 3.43985e-05 max: 0.00834908 velocity magnitude: 0.130454
Time = 0.008

MULES: Solving for alpha1
Liquid phase volume fraction = 0.00275429  Min(alpha1) = -2.0327e-30  Max(alpha1) = 1
MULES: Solving for alpha1
Liquid phase volume fraction = 0.00275429  Min(alpha1) = -3.24143e-30  Max(alpha1) = 1
[2] Building level 0
[5] Building level 0
[0] Building level 0
[3] Building level 0
[4] Building level 0
[1] Building level 0
[0] Building level 1
[5] Building level 1
[3] Building level 1
[4] Building level 1
[1] Building level 1
[2] Building level 1
[3] Building level 2
[0] Building level 2
Reconstruction on level 2
[2] Building level 2
[3] Building level 3
[2] Building level 3
[2] Building level 4
[3] Building level 4
Creating AMGLevel 
[0] Building level 3
Reconstruction on level 3
[2] Building level 5
[3] Building level 5
[4] Building level 2
[5] Building level 2
[1] Building level 2
Creating AMGLevel 
[0] Building level 4
Reconstruction on level 4
[2] Building level 6
[3] Building level 6
[2] Building level 7
[3] Building level 7
[2] Building level 8
[3] Building level 8
[2] Building level 9
Creating AMGLevel 
[0] Building level 5
Reconstruction on level 5
[2] Building level 10
[3] Building level 9
[2] Building level 11
[2] Building level 12
[2] Building level 13
[2] Building level 14
[3] Building level 10
[3] Building level 11
[3] Building level 12
[3] Building level 13
[3] Building level 14
[5] Building level 3
[4] Building level 3
Creating AMGLevel 
[0] Building level 6
Reconstruction on level 6
[1] Building level 3
Creating AMGLevel 
[0] Building level 7
Reconstruction on level 7
Creating AMGLevel 
[0] Building level 8
Reconstruction on level 8
Creating AMGLevel 
[0] Building level 9
Reconstruction on level 9
Creating AMGLevel 
[0] Building level 10
Reconstruction on level 10
Creating AMGLevel 
[0] Building level 11
Reconstruction on level 11
Creating AMGLevel 
[0] Building level 12
Reconstruction on level 12
Creating AMGLevel 
[0] Building level 13
Reconstruction on level 13
Creating AMGLevel 
[0] Building level 14
Reconstruction on level 14
Creating AMGLevel 
14 Level construction complete
[5] Building level 4
[4] Building level 4
[1] Building level 4
[5] Building level 5
[4] Building level 5
[1] Building level 5
[5] Building level 6
[4] Building level 6
[5] Building level 7
[5] Building level 8
[4] Building level 7
[1] Building level 6
[5] Building level 9
[5] Building level 10
[5] Building level 11
[...]
[4] Building level 11
[4] Building level 12
[4] Building level 13
[4] Building level 14
[1] Building level 8
Creating AMGLevel 
[0] Building level 4
Reconstruction on level 4
[1] Building level 9
[1] Building level 10
[5] Building level 4
[1] Building level 11
[1] Building level 12
[1] Building level 13
[1] Building level 14
Creating AMGLevel 
[0] Building level 5
Reconstruction on level 5
[5] Building level 5
Creating AMGLevel 
[0] Building level 6
Reconstruction on level 6
[5] Building level 6
Creating AMGLevel 
[0] Building level 7
Reconstruction on level 7
[5] Building level 7
Creating AMGLevel 
[0] Building level 8
Reconstruction on level 8
[5] Building level 8
Creating AMGLevel 
[0] Building level 9
Reconstruction on level 9
Creating AMGLevel 
[0] Building level 10
Reconstruction on level 10
[5] Building level 9
Creating AMGLevel 
[0] Building level 11
Reconstruction on level 11
Creating AMGLevel 
[0] Building level 12
Reconstruction on level 12
Creating AMGLevel 
[0] Building level 13
Reconstruction on level 13
[5] Building level 10
Creating AMGLevel 
[0] Building level 14
Reconstruction on level 14
Creating AMGLevel 
14 Level construction complete
[5] Building level 11
[5] Building level 12
[5] Building level 13
[5] Building level 14
initial dot_x = 2.70632e+08
Iter #1 residual = 0.0134872
Iter #2 residual = 0.00953043
Iter #3 residual = 0.00553659
Iter #4 residual = 0.0082126
Iter #5 residual = 0.00396058
Iter #6 residual = 0.00586454
Iter #7 residual = 0.0053437
Iter #8 residual = 0.00507901
Iter #9 residual = 0.00272363
GMRES:  Solving for topLevelCorr, Initial residual = 0.77873, Final residual = 0.782192, No Iterations 200
Iter #10 residual = 0.000833291
GMRES:  Solving for topLevelCorr, Initial residual = 0.903595, Final residual = 1.12391, No Iterations 200
Iter #11 residual = 0.00079735
GMRES:  Solving for topLevelCorr, Initial residual = 0.879441, Final residual = 0.918036, No Iterations 200
Iter #12 residual = 0.000609782
GMRES:  Solving for topLevelCorr, Initial residual = 0.91626, Final residual = 1.17411, No Iterations 200
Iter #13 residual = 0.000677804
GMRES:  Solving for topLevelCorr, Initial residual = 0.871894, Final residual = 0.950951, No Iterations 200
GPU: 13 iters: 3.15186 s: 1.79899 GB/s
GPUAMG:  Solving for pd, Initial residual = 0.0114593, Final residual = 0.000522795, No Iterations 13
[5] Building level 0
[1] Building level 0
[0] Building level 0
[4] Building level 0
[2] Building level 0
[3] Building level 0
[5] Building level 1
[3] Building level 1
[3] Building level 2
[0] Building level 1
[0] Building level 2
[4] Building level 1
[2] Building level 1
[1] Building level 1
[4] Building level 2
[5] Building level 2
[2] Building level 2
[1] Building level 2
[3] Building level 3
[0] Building level 3
[2] Building level 3
[4] Building level 3
[5] Building level 3
[1] Building level 3
[0] Building level 4
[3] Building level 4
[1] Building level 4
[4] Building level 4
[2] Building level 4
[5] Building level 4
[3] Building level 5
[0] Building level 5
[1] Building level 5
[4] Building level 5
[2] Building level 5
[3] Building level 6
[0] Building level 6
[5] Building level 5
[0] Building level 7
[3] Building level 7
[1] Building level 6
[0] Building level 8
[3] Building level 8
[4] Building level 6
[0] Building level 9
[3] Building level 9
[2] Building level 6
[5] Building level 6
[0] Building level 10
[3] Building level 10
[0] Building level 11
[0] Building level 12
[3] Building level 11
[0] Building level 13
[0] Building level 14
14 Level construction complete
[3] Building level 12
[3] Building level 13
[3] Building level 14
[1] Building level 7
[4] Building level 7
[1] Building level 8
[5] Building level 7
[2] Building level 7
[1] Building level 9
[4] Building level 8
[1] Building level 10
[1] Building level 11
[5] Building level 8
[1] Building level 12
[1] Building level 13
[4] Building level 9
[1] Building level 14
[2] Building level 8
[4] Building level 10
[4] Building level 11
[5] Building level 9
[4] Building level 12
[4] Building level 13
[4] Building level 14
[5] Building level 10
[2] Building level 9
[5] Building level 11
[5] Building level 12
[5] Building level 13
[5] Building level 14
[2] Building level 10
[2] Building level 11
[2] Building level 12
[2] Building level 13
[2] Building level 14
initial dot_x = 9.98902e+07
Iter #1 residual = 0.00558685
Iter #2 residual = 0.00404602
Iter #3 residual = 0.0045071
Iter #4 residual = 0.00429667
Iter #5 residual = 0.00250005
Iter #6 residual = 0.00446909
Iter #7 residual = 0.00300503
Iter #8 residual = 0.00333976
Iter #9 residual = 0.00167368
Iter #10 residual = 0.00172119
Iter #11 residual = 0.00568555
Iter #12 residual = 0.00530688
Iter #13 residual = 0.00198044
Iter #14 residual = 0.00166327
Iter #15 residual = 0.00376875
Iter #16 residual = 0.00296726
Iter #17 residual = 0.00323899
Iter #18 residual = 0.00187457
Iter #19 residual = 0.00228079
Iter #20 residual = 0.00429296
Iter #21 residual = 0.00376264
Iter #22 residual = 0.000991307
Iter #23 residual = 0.00388501
Iter #24 residual = 0.00346141
Iter #25 residual = 0.00279906
Iter #26 residual = 0.00263084
Iter #27 residual = 0.00211487
Iter #28 residual = 0.000997337
Iter #29 residual = 0.00270667
Iter #30 residual = 0.00239575
Iter #31 residual = 0.00115551
Iter #32 residual = 0.000990294
Iter #33 residual = 0.00187534
Iter #34 residual = 0.00184157
Iter #35 residual = 0.000769678
Iter #36 residual = 0.00154237
Iter #37 residual = 0.00123323
Iter #38 residual = 0.00112411
Iter #39 residual = 0.00153402
Iter #40 residual = 0.0012176
Iter #41 residual = 0.00114075
Iter #42 residual = 0.000754605
Iter #43 residual = 0.00122136
Iter #44 residual = 0.000789625
Iter #45 residual = 0.00176725
Iter #46 residual = 0.00333406
Iter #47 residual = 0.00359603
Iter #48 residual = 0.00116469
Iter #49 residual = 0.000954984
Iter #50 residual = 0.00041577
GPU: 50 iters: 11.4808 s: 1.89955 GB/s
GPUAMG:  Solving for pd, Initial residual = 0.00611516, Final residual = 0.000470404, No Iterations 50
[3] Building level 0
[5] Building level 0
[0] Building level 0
[1] Building level 0
[2] Building level 0
[4] Building level 0
[5] Building level 1
[0] Building level 1
[3] Building level 1
[4] Building level 1
[1] Building level 1
[2] Building level 1
[0] Building level 2
[3] Building level 2
[4] Building level 2
[5] Building level 2
[1] Building level 2
[2] Building level 2
[0] Building level 3
[3] Building level 3
[2] Building level 3
[4] Building level 3
[5] Building level 3
[1] Building level 3
[0] Building level 4
[3] Building level 4
[1] Building level 4
[4] Building level 4
[2] Building level 4
[5] Building level 4
[3] Building level 5
[0] Building level 5
[1] Building level 5
[4] Building level 5
[2] Building level 5
[5] Building level 5
[3] Building level 6
[0] Building level 6
[1] Building level 6
[3] Building level 7
[0] Building level 7
[4] Building level 6
[2] Building level 6
[3] Building level 8
[5] Building level 6
[0] Building level 8
[3] Building level 9
[1] Building level 7
[0] Building level 9
[3] Building level 10
[0] Building level 10
[3] Building level 11
[0] Building level 11
[3] Building level 12
[3] Building level 13
[0] Building level 12
[3] Building level 14
[0] Building level 13
[0] Building level 14
14 Level construction complete
[4] Building level 7
[1] Building level 8
[5] Building level 7
[2] Building level 7
[1] Building level 9
[4] Building level 8
[1] Building level 10
[1] Building level 11
[1] Building level 12
[1] Building level 13
[1] Building level 14
[5] Building level 8
[2] Building level 8
[4] Building level 9
[4] Building level 10
[5] Building level 9
[4] Building level 11
[2] Building level 9
[4] Building level 12
[4] Building level 13
[4] Building level 14
[5] Building level 10
[5] Building level 11
[2] Building level 10
[5] Building level 12
[5] Building level 13
[5] Building level 14
[2] Building level 11
[2] Building level 12
[2] Building level 13
[2] Building level 14
initial dot_x = 1.9266e+08
Iter #1 residual = 0.000775567
Iter #2 residual = 0.000425573
Iter #3 residual = 0.000210626
Iter #4 residual = 0.000209343
Iter #5 residual = 0.000198704
Iter #6 residual = 0.000274265
Iter #7 residual = 0.000386122
Iter #8 residual = 0.000296454
Iter #9 residual = 0.000113631
Iter #10 residual = 9.45141e-05
Iter #11 residual = 0.000100586
Iter #12 residual = 7.60673e-05
Iter #13 residual = 0.000112753
Iter #14 residual = 8.00408e-05
Iter #15 residual = 0.000102906
Iter #16 residual = 5.82643e-05
Iter #17 residual = 6.9192e-05
Iter #18 residual = 5.85231e-05
Iter #19 residual = 4.99138e-05
Iter #20 residual = 2.58597e-05
GMRES:  Solving for topLevelCorr, Initial residual = 0.926635, Final residual = 1.2149, No Iterations 200
Iter #21 residual = 3.06074e-05
Iter #22 residual = 0.000218691
Iter #23 residual = 0.000216041
Iter #24 residual = 6.30693e-05
Iter #25 residual = 9.03018e-05
Iter #26 residual = 6.84473e-05
Iter #27 residual = 0.00013561
Iter #28 residual = 8.23589e-05
Iter #29 residual = 0.000105679
Iter #30 residual = 7.94253e-05
Iter #31 residual = 0.000115215
Iter #32 residual = 5.99319e-05
Iter #33 residual = 0.00014681
Iter #34 residual = 0.000157955
Iter #35 residual = 0.000101534
Iter #36 residual = 6.08367e-05
Iter #37 residual = 5.17489e-05
Iter #38 residual = 3.32353e-05
Iter #39 residual = 6.8441e-05
Iter #40 residual = 4.27821e-05
GMRES:  Solving for topLevelCorr, Initial residual = 0.846161, Final residual = 0.9546, No Iterations 200
Iter #41 residual = 1.33067e-05
GMRES:  Solving for topLevelCorr, Initial residual = 0.923663, Final residual = 1.08502, No Iterations 200
Iter #42 residual = 1.63392e-05
Iter #43 residual = 3.95529e-05
Iter #44 residual = 0.00014871
Iter #45 residual = 0.000143843
Iter #46 residual = 4.06503e-05
Iter #47 residual = 7.45147e-05
Iter #48 residual = 6.1207e-05
Iter #49 residual = 9.3164e-05
Iter #50 residual = 6.13638e-05
GPU: 50 iters: 11.4843 s: 1.89897 GB/s
GPUAMG:  Solving for pd, Initial residual = 0.00590789, Final residual = 0.000157756, No Iterations 50
time step continuity errors : sum local = 7.46986e-09, global = 2.63758e-12, cumulative = -7.62323e-08
ExecutionTime = 569.29 s  ClockTime = 600 s

Courant Number mean: 4.462e-05 max: 0.00971291 velocity magnitude: 0.149363
Time = 0.01

MULES: Solving for alpha1
Liquid phase volume fraction = 0.00275429  Min(alpha1) = -1.58649e-29  Max(alpha1) = 1
MULES: Solving for alpha1
Liquid phase volume fraction = 0.00275429  Min(alpha1) = -3.1138e-29  Max(alpha1) = 1
[5] Building level 0
[4] Building level 0
[0] Building level 0
[1] Building level 0
[2] Building level 0
[3] Building level 0
[5] Building level 1
[0] Building level 1
Reconstruction on level 1
[3] Building level 1
[4] Building level 1
[2] Building level 1
[1] Building level 1
[3] Building level 2
[4] Building level 2
[2] Building level 2
[3] Building level 3
[2] Building level 3
[3] Building level 4
[2] Building level 4
[4] Building level 3
[3] Building level 5
[2] Building level 5
Creating AMGLevel 
[0] Building level 2
Reconstruction on level 2
[5] Building level 2
[1] Building level 2
[4] Building level 4
[3] Building level 6
[2] Building level 6
[3] Building level 7
[2] Building level 7
[3] Building level 8
[2] Building level 8
[3] Building level 9
[2] Building level 9
[3] Building level 10
[4] Building level 5
[3] Building level 11
[2] Building level 10
[3] Building level 12
[3] Building level 13
[2] Building level 11
[3] Building level 14
[2] Building level 12
[2] Building level 13
[2] Building level 14
Creating AMGLevel 
[0] Building level 3
Reconstruction on level 3
[5] Building level 3
[4] Building level 6
[1] Building level 3
[4] Building level 7
[4] Building level 8
[4] Building level 9
[4] Building level 10
[4] Building level 11
[4] Building level 12
[4] Building level 13
[4] Building level 14
Creating AMGLevel 
[0] Building level 4
Reconstruction on level 4
[5] Building level 4
[1] Building level 4
Creating AMGLevel 
[0] Building level 5
Reconstruction on level 5
[5] Building level 5
[1] Building level 5
Creating AMGLevel 
[5] Building level 6
[0] Building level 6
Reconstruction on level 6
Creating AMGLevel 
[5] Building level 7
[0] Building level 7
Reconstruction on level 7
[1] Building level 6
[5] Building level 8
Creating AMGLevel 
[0] Building level 8
Reconstruction on level 8
[5] Building level 9
Creating AMGLevel 
[0] Building level 9
Reconstruction on level 9
[5] Building level 10
Creating AMGLevel 
[0] Building level 10
Reconstruction on level 10
[5] Building level 11
Creating AMGLevel 
[0] Building level 11
Reconstruction on level 11
[5] Building level 12
Creating AMGLevel 
[0] Building level 12
Reconstruction on level 12
[5] Building level 13
[1] Building level 7
Creating AMGLevel 
[0] Building level 13
Reconstruction on level 13
[5] Building level 14
Creating AMGLevel 
[0] Building level 14
Reconstruction on level 14
Creating AMGLevel 
14 Level construction complete
[1] Building level 8
[1] Building level 9
[1] Building level 10
[1] Building level 11
[1] Building level 12
[1] Building level 13
[1] Building level 14
initial dot_x = 2.18576e+08
Iter #1 residual = 0.0154429
Iter #2 residual = 0.0081502
Iter #3 residual = 0.00611357
Iter #4 residual = 0.00421323
Iter #5 residual = 0.00996409
Iter #6 residual = 0.00662819
Iter #7 residual = 0.00317237
Iter #8 residual = 0.00252716
Iter #9 residual = 0.0034984
Iter #10 residual = 0.00204206
Iter #11 residual = 0.00435855
Iter #12 residual = 0.00238412
Iter #13 residual = 0.000892266
Iter #14 residual = 0.00206079
Iter #15 residual = 0.00119423
GPU: 15 iters: 3.38479 s: 1.93291 GB/s
GPUAMG:  Solving for pd, Initial residual = 0.0118363, Final residual = 0.000507784, No Iterations 15
[3] Building level 0
[0] Building level 0
[2] Building level 0
[5] Building level 0
[1] Building level 0
[4] Building level 0
[3] Building level 1
[5] Building level 1
[0] Building level 1
[2] Building level 1
[4] Building level 1
[1] Building level 1
[3] Building level 2
[5] Building level 2
[4] Building level 2
[2] Building level 2
[0] Building level 2
[1] Building level 2
[3] Building level 3
[2] Building level 3
[5] Building level 3
[4] Building level 3
[0] Building level 3
[1] Building level 3
[3] Building level 4
[2] Building level 4
[0] Building level 4
[1] Building level 4
[5] Building level 4
[4] Building level 4
[3] Building level 5
[2] Building level 5
[0] Building level 5
[1] Building level 5
[3] Building level 6
[5] Building level 5
[4] Building level 5
[3] Building level 7
[2] Building level 6
[3] Building level 8
[3] Building level 9
[0] Building level 6
[1] Building level 6
[3] Building level 10
[3] Building level 11
[2] Building level 7
[3] Building level 12
[3] Building level 13
[3] Building level 14
[5] Building level 6
[4] Building level 6
[2] Building level 8
[0] Building level 7
[2] Building level 9
[1] Building level 7
[2] Building level 10
[2] Building level 11
[2] Building level 12
[2] Building level 13
[5] Building level 7
[2] Building level 14
[4] Building level 7
[0] Building level 8
[0] Building level 9
[1] Building level 8
[0] Building level 10
[5] Building level 8
[4] Building level 8
[0] Building level 11
[0] Building level 12
[0] Building level 13
[1] Building level 9
[0] Building level 14
14 Level construction complete
[5] Building level 9
[1] Building level 10
[4] Building level 9
[1] Building level 11
[1] Building level 12
[5] Building level 10
[4] Building level 10
[1] Building level 13
[1] Building level 14
[5] Building level 11
[4] Building level 11
[5] Building level 12
[4] Building level 12
[5] Building level 13
[5] Building level 14
[4] Building level 13
[4] Building level 14
initial dot_x = 2.19422e+08
Iter #1 residual = 0.0032196
Iter #2 residual = 0.00231935
Iter #3 residual = 0.0013667
Iter #4 residual = 0.00111099
Iter #5 residual = 0.0016655
Iter #6 residual = 0.00179564
Iter #7 residual = 0.000592984
Iter #8 residual = 0.000579103
Iter #9 residual = 0.000331529
GPU: 9 iters: 2.10487 s: 1.86496 GB/s
GPUAMG:  Solving for pd, Initial residual = 0.00633083, Final residual = 0.000197101, No Iterations 9
[4] Building level 0
[2] Building level 0
[1] Building level 0
[3] Building level 0
[5] Building level 0
[0] Building level 0
[5] Building level 1
[0] Building level 1
[3] Building level 1
[4] Building level 1
[2] Building level 1
[1] Building level 1
[3] Building level 2
[4] Building level 2
[2] Building level 2
[5] Building level 2
[0] Building level 2
[1] Building level 2
[3] Building level 3
[2] Building level 3
[5] Building level 3
[4] Building level 3
[0] Building level 3
[1] Building level 3
[3] Building level 4
[2] Building level 4
[0] Building level 4
[1] Building level 4
[5] Building level 4
[4] Building level 4
[3] Building level 5
[2] Building level 5
[0] Building level 5
[1] Building level 5
[3] Building level 6
[5] Building level 5
[4] Building level 5
[3] Building level 7
[2] Building level 6
[3] Building level 8
[3] Building level 9
[0] Building level 6
[3] Building level 10
[3] Building level 11
[3] Building level 12
[3] Building level 13
[3] Building level 14
[1] Building level 6
[2] Building level 7
[5] Building level 6
[4] Building level 6
[0] Building level 7
[2] Building level 8
[1] Building level 7
[2] Building level 9
[0] Building level 8
[2] Building level 10
[4] Building level 7
[2] Building level 11
[2] Building level 12
[2] Building level 13
[5] Building level 7
[2] Building level 14
[0] Building level 9
[1] Building level 8
[0] Building level 10
[0] Building level 11
[0] Building level 12
[0] Building level 13
[0] Building level 14
14 Level construction complete
[1] Building level 9
[4] Building level 8
[5] Building level 8
[1] Building level 10
[1] Building level 11
[1] Building level 12
[4] Building level 9
[1] Building level 13
[1] Building level 14
[5] Building level 9
[4] Building level 10
[5] Building level 10
[4] Building level 11
[4] Building level 12
[4] Building level 13
[5] Building level 11
[4] Building level 14
[5] Building level 12
[5] Building level 13
[5] Building level 14
initial dot_x = 8.80122e+07
Iter #1 residual = 0.00226163
Iter #2 residual = 0.00455779
Iter #3 residual = 0.00207914
Iter #4 residual = 0.00145243
Iter #5 residual = 0.000883915
Iter #6 residual = 0.00146426
Iter #7 residual = 0.000994593
Iter #8 residual = 0.00159575
Iter #9 residual = 0.000880874
Iter #10 residual = 0.000473667
Iter #11 residual = 0.000404679
Iter #12 residual = 0.000248499
Iter #13 residual = 0.000686041
Iter #14 residual = 0.000690468
Iter #15 residual = 0.000195687
Iter #16 residual = 0.000161973
Iter #17 residual = 0.000138593
Iter #18 residual = 0.000128593
Iter #19 residual = 9.82487e-05
Iter #20 residual = 9.99405e-05
Iter #21 residual = 9.60336e-05
Iter #22 residual = 9.29599e-05
Iter #23 residual = 9.77326e-05
Iter #24 residual = 8.46721e-05
Iter #25 residual = 0.000103572
Iter #26 residual = 0.000116888
Iter #27 residual = 7.53397e-05
Iter #28 residual = 8.29364e-05
Iter #29 residual = 0.000148236
Iter #30 residual = 0.000100868
Iter #31 residual = 4.21593e-05
Iter #32 residual = 2.89425e-05
Iter #33 residual = 2.53393e-05
Iter #34 residual = 2.65335e-05
Iter #35 residual = 2.36844e-05
Iter #36 residual = 1.29886e-05
Iter #37 residual = 9.18936e-06
Iter #38 residual = 6.80963e-06
Iter #39 residual = 5.7506e-06
Iter #40 residual = 4.85851e-06
Iter #41 residual = 9.38301e-06
Iter #42 residual = 5.73701e-06
Iter #43 residual = 5.1195e-06
Iter #44 residual = 5.01072e-06
Iter #45 residual = 3.23216e-06
Iter #46 residual = 2.12922e-06
Iter #47 residual = 1.06684e-06
Iter #48 residual = 8.19155e-07
Iter #49 residual = 9.36142e-07
Iter #50 residual = 6.79672e-07
GPU: 50 iters: 10.7656 s: 2.02574 GB/s
GPUAMG:  Solving for pd, Initial residual = 0.00616065, Final residual = 1.06755e-06, No Iterations 50
time step continuity errors : sum local = 8.9215e-11, global = -4.22459e-11, cumulative = -7.62746e-08
ExecutionTime = 624.03 s  ClockTime = 656 s

End

Finalising parallel run
