 Data for JOB [11936,1] offset 0

 ========================   JOB MAP   ========================

 Data for node: ivb112	Num slots: 3	Max slots: 0	Num procs: 3
 	Process OMPI jobid: [11936,1] App: 0 Process rank: 0
 	Process OMPI jobid: [11936,1] App: 0 Process rank: 1
 	Process OMPI jobid: [11936,1] App: 0 Process rank: 2

 Data for node: ivb113	Num slots: 3	Max slots: 0	Num procs: 3
 	Process OMPI jobid: [11936,1] App: 0 Process rank: 3
 	Process OMPI jobid: [11936,1] App: 0 Process rank: 4
 	Process OMPI jobid: [11936,1] App: 0 Process rank: 5

 =============================================================
[ivb112:29014] MCW rank 2 bound to socket 0[core 2[hwt 0]]: [././B/././././././.][./././././././././.]
[ivb112:29014] MCW rank 0 bound to socket 0[core 0[hwt 0]]: [B/././././././././.][./././././././././.]
[ivb112:29014] MCW rank 1 bound to socket 0[core 1[hwt 0]]: [./B/./././././././.][./././././././././.]
[ivb113:02700] MCW rank 3 bound to socket 0[core 0[hwt 0]]: [B/././././././././.][./././././././././.]
[ivb113:02700] MCW rank 4 bound to socket 0[core 1[hwt 0]]: [./B/./././././././.][./././././././././.]
[ivb113:02700] MCW rank 5 bound to socket 0[core 2[hwt 0]]: [././B/././././././.][./././././././././.]
1
0
1
2
0
2
/*---------------------------------------------------------------------------*\
| =========                 |                                                 |
| \\      /  F ield         | foam-extend: Open Source CFD                    |
|  \\    /   O peration     | Version:     3.1                                |
|   \\  /    A nd           | Web:         http://www.extend-project.de       |
|    \\/     M anipulation  |                                                 |
\*---------------------------------------------------------------------------*/
Build    : 3.1-e2da948002a2
Exec     : interFoam -parallel
Date     : May 25 2016
Time     : 20:05:07
Host     : ivb112
PID      : 29055
CtrlDict : /home-2/vplatonov/foam/foam-extend-3.1/etc/controlDict
Case     : /home/vplatonov/tests/rt12mln
nProcs   : 6
Slaves : 
5
(
ivb112.29054
ivb112.29053
ivb113.2733
ivb113.2739
ivb113.2731
)

Pstream initialized with:
    floatTransfer     : 0
    nProcsSimpleSum   : 0
    commsType         : blocking
SigFpe   : Enabling floating point exception trapping (FOAM_SIGFPE).

// * * * * * * * * * * * * * * * * * * * * * * * * * * * * * * * * * * * * * //
Create time

Create mesh for time = 0


Reading g
Reading field pd

Reading field alpha1

Reading field U

Reading/calculating face flux field phi

Reading transportProperties

Selecting incompressible transport model Newtonian
Selecting incompressible transport model Newtonian
Calculating field g.h

Selecting turbulence model type laminar
time step continuity errors : sum local = 0, global = 0, cumulative = 0
Created persistent data with name pcorr
GPUAMG:  Solving for pcorr, Initial residual = 0, Final residual = 0, No Iterations 0
time step continuity errors : sum local = 0, global = 0, cumulative = 0
Courant Number mean: 0 max: 0 velocity magnitude: 0

Starting time loop

Courant Number mean: 0 max: 0 velocity magnitude: 0
Time = 0.001

MULES: Solving for alpha1
Liquid phase volume fraction = 0.00275421  Min(alpha1) = 0  Max(alpha1) = 1
MULES: Solving for alpha1
Liquid phase volume fraction = 0.00275421  Min(alpha1) = 0  Max(alpha1) = 1
Created persistent data with name pd
[2] Building level 0
[1] Building level 0
[0] Building level 0
[3] Building level 0
[5] Building level 0
[4] Building level 0
Creating AMGLevel 
[3] Building level 1
[4] Building level 1
[5] Building level 1
[0] Building level 1
[1] Building level 1
[2] Building level 1
[3] Building level 2
[4] Building level 2
Creating AMGLevel 
[5] Building level 2
[2] Building level 2
[0] Building level 2
[1] Building level 2
[3] Building level 3
[2] Building level 3
Creating AMGLevel 
[4] Building level 3
[5] Building level 3
[0] Building level 3
[1] Building level 3
[3] Building level 4
[2] Building level 4
Creating AMGLevel 
[0] Building level 4
[4] Building level 4
[1] Building level 4
[5] Building level 4
[2] Building level 5
[3] Building level 5
Creating AMGLevel 
[0] Building level 5
[4] Building level 5
[1] Building level 5
[5] Building level 5
[2] Building level 6
[3] Building level 6
Creating AMGLevel 
[0] Building level 6
[4] Building level 6
[1] Building level 6
[5] Building level 6
[2] Building level 7
[3] Building level 7
Creating AMGLevel 
[0] Building level 7
[4] Building level 7
[1] Building level 7
[5] Building level 7
[2] Building level 8
[3] Building level 8
Creating AMGLevel 
[0] Building level 8
[4] Building level 8
[1] Building level 8
[2] Building level 9
[3] Building level 9
Creating AMGLevel 
[0] Building level 9
[5] Building level 8
[2] Building level 10
[3] Building level 10
[4] Building level 9
[1] Building level 9
Creating AMGLevel 
[0] Building level 10
[3] Building level 11
Creating AMGLevel 
[0] Building level 11
[2] Building level 11
[4] Building level 10
[3] Building level 12
Creating AMGLevel 
[0] Building level 12
[2] Building level 12
[1] Building level 10
[3] Building level 13
[5] Building level 9
[2] Building level 13
Creating AMGLevel 
[0] Building level 13
[3] Building level 14
[1] Building level 11
[2] Building level 14
[4] Building level 11
Creating AMGLevel 
[0] Building level 14
[1] Building level 12
Creating AMGLevel 
14 Level construction complete
[4] Building level 12
[5] Building level 10
[1] Building level 13
[4] Building level 13
[4] Building level 14
[1] Building level 14
[5] Building level 11
[5] Building level 12
[5] Building level 13
[5] Building level 14
initial dot_x = 0
Iter #1 residual = 0.0735088
GPU: 1 iters: 0.363344 s: 1.20042 GB/s
GPUAMG:  Solving for pd, Initial residual = 1, Final residual = 0.0272231, No Iterations 1
[1] Building level 0
[2] Building level 0
[0] Building level 0
[5] Building level 0
[3] Building level 0
[4] Building level 0
[1] Building level 1
[0] Building level 1
[5] Building level 1
[2] Building level 1
[4] Building level 1
[3] Building level 1
[0] Building level 2
[2] Building level 2
[5] Building level 2
[3] Building level 2
[1] Building level 2
[4] Building level 2
[0] Building level 3
[2] Building level 3
[3] Building level 3
[5] Building level 3
[1] Building level 3
[4] Building level 3
[0] Building level 4
[3] Building level 4
[2] Building level 4
[5] Building level 4
[1] Building level 4
[4] Building level 4
[0] Building level 5
[3] Building level 5
[2] Building level 5
[5] Building level 5
[1] Building level 5
[4] Building level 5
[0] Building level 6
[3] Building level 6
[2] Building level 6
[5] Building level 6
[1] Building level 6
[0] Building level 7
[4] Building level 6
[3] Building level 7
[2] Building level 7
[5] Building level 7
[0] Building level 8
[3] Building level 8
[1] Building level 7
[0] Building level 9
[2] Building level 8
[5] Building level 8
[0] Building level 10
[3] Building level 9
[0] Building level 11
[0] Building level 12
[0] Building level 13
[0] Building level 14
[3] Building level 10
[2] Building level 9
14 Level construction complete
[5] Building level 9
[4] Building level 7
[3] Building level 11
[1] Building level 8
[3] Building level 12
[3] Building level 13
[3] Building level 14
[5] Building level 10
[2] Building level 10
[2] Building level 11
[5] Building level 11
[5] Building level 12
[2] Building level 12
[5] Building level 13
[2] Building level 13
[2] Building level 14
[5] Building level 14
[1] Building level 9
[1] Building level 10
[1] Building level 11
[4] Building level 8
[1] Building level 12
[1] Building level 13
[1] Building level 14
[4] Building level 9
[4] Building level 10
[4] Building level 11
[4] Building level 12
[4] Building level 13
[4] Building level 14
initial dot_x = 75889
Iter #1 residual = 0.00835051
Iter #2 residual = 0.00430568
Iter #3 residual = 0.00228557
Iter #4 residual = 0.00122381
GPU: 4 iters: 0.894841 s: 1.94969 GB/s
GPUAMG:  Solving for pd, Initial residual = 0.0195871, Final residual = 0.000647045, No Iterations 4
[1] Building level 0
[2] Building level 0
[0] Building level 0
[3] Building level 0
[4] Building level 0
[5] Building level 0
[1] Building level 1
[0] Building level 1
[5] Building level 1
[2] Building level 1
[3] Building level 1
[4] Building level 1
[0] Building level 2
[3] Building level 2
[1] Building level 2
[2] Building level 2
[5] Building level 2
[4] Building level 2
[0] Building level 3
[3] Building level 3
[2] Building level 3
[5] Building level 3
[1] Building level 3
[4] Building level 3
[0] Building level 4
[3] Building level 4
[2] Building level 4
[5] Building level 4
[1] Building level 4
[4] Building level 4
[0] Building level 5
[3] Building level 5
[2] Building level 5
[5] Building level 5
[1] Building level 5
[4] Building level 5
[0] Building level 6
[3] Building level 6
[2] Building level 6
[5] Building level 6
[1] Building level 6
[0] Building level 7
[4] Building level 6
[3] Building level 7
[2] Building level 7
[0] Building level 8
[5] Building level 7
[3] Building level 8
[1] Building level 7
[0] Building level 9
[2] Building level 8
[0] Building level 10
[5] Building level 8
[3] Building level 9
[0] Building level 11
[0] Building level 12
[0] Building level 13
[0] Building level 14
14 Level construction complete
[4] Building level 7
[3] Building level 10
[2] Building level 9
[3] Building level 11
[5] Building level 9
[1] Building level 8
[3] Building level 12
[3] Building level 13
[3] Building level 14
[2] Building level 10
[2] Building level 11
[5] Building level 10
[2] Building level 12
[2] Building level 13
[5] Building level 11
[2] Building level 14
[1] Building level 9
[5] Building level 12
[5] Building level 13
[5] Building level 14
[4] Building level 8
[1] Building level 10
[1] Building level 11
[1] Building level 12
[1] Building level 13
[1] Building level 14
[4] Building level 9
[4] Building level 10
[4] Building level 11
[4] Building level 12
[4] Building level 13
[4] Building level 14
initial dot_x = 126184
Iter #1 residual = 0.00255167
Iter #2 residual = 0.00115624
Iter #3 residual = 0.000570713
Iter #4 residual = 0.000292687
Iter #5 residual = 0.000160959
Iter #6 residual = 9.85084e-05
Iter #7 residual = 6.26543e-05
Iter #8 residual = 3.98258e-05
Iter #9 residual = 3.04048e-05
Iter #10 residual = 1.82271e-05
Iter #11 residual = 1.49312e-05
Iter #12 residual = 1.33573e-05
Iter #13 residual = 1.25372e-05
Iter #14 residual = 6.08038e-06
Iter #15 residual = 7.78486e-06
Iter #16 residual = 4.4035e-06
Iter #17 residual = 7.65108e-06
Iter #18 residual = 6.11153e-06
Iter #19 residual = 2.60158e-06
Iter #20 residual = 4.45613e-06
Iter #21 residual = 6.70987e-06
Iter #22 residual = 3.4983e-06
Iter #23 residual = 3.37745e-06
Iter #24 residual = 1.96247e-06
Iter #25 residual = 1.08654e-06
Iter #26 residual = 7.33283e-07
Iter #27 residual = 6.35713e-07
Iter #28 residual = 4.07698e-07
Iter #29 residual = 4.82664e-07
Iter #30 residual = 2.62183e-07
Iter #31 residual = 5.56826e-07
Iter #32 residual = 3.8955e-07
Iter #33 residual = 1.98696e-07
Iter #34 residual = 4.10149e-07
Iter #35 residual = 2.54451e-07
Iter #36 residual = 3.2797e-07
Iter #37 residual = 2.14024e-07
Iter #38 residual = 1.49388e-07
Iter #39 residual = 3.06476e-07
Iter #40 residual = 2.14814e-07
GPU: 40 iters: 7.3181 s: 2.38404 GB/s
GPUAMG:  Solving for pd, Initial residual = 0.00627279, Final residual = 7.37387e-08, No Iterations 40
time step continuity errors : sum local = 5.98178e-12, global = -3.12843e-24, cumulative = -3.12843e-24
ExecutionTime = 64.09 s  ClockTime = 78 s

Courant Number mean: 4.83976e-06 max: 0.00216219 velocity magnitude: 0.0337842
Time = 0.002

MULES: Solving for alpha1
Liquid phase volume fraction = 0.00275421  Min(alpha1) = 0  Max(alpha1) = 1
MULES: Solving for alpha1
Liquid phase volume fraction = 0.00275421  Min(alpha1) = 0  Max(alpha1) = 1
[1] Building level 0
[0] Building level 0
[2] Building level 0
[4] Building level 0
[3] Building level 0
[5] Building level 0
[0] Building level 1
Reconstruction on level 1
[1] Building level 1
[5] Building level 1
[4] Building level 1
[3] Building level 1
[2] Building level 1
[3] Building level 2
[2] Building level 2
[3] Building level 3
[2] Building level 3
[2] Building level 4
[3] Building level 4
[2] Building level 5
[3] Building level 5
Creating AMGLevel 
[1] Building level 2
[4] Building level 2
[0] Building level 2
Reconstruction on level 2
[5] Building level 2
[2] Building level 6
[3] Building level 6
[2] Building level 7
[3] Building level 7
[2] Building level 8
[3] Building level 8
[2] Building level 9
[3] Building level 9
[2] Building level 10
[3] Building level 10
[2] Building level 11
[3] Building level 11
[2] Building level 12
[3] Building level 12
[3] Building level 13
[2] Building level 13
[2] Building level 14
[3] Building level 14
Creating AMGLevel 
[1] Building level 3
[0] Building level 3
Reconstruction on level 3
[4] Building level 3
[5] Building level 3
[1] Building level 4
Creating AMGLevel 
[0] Building level 4
Reconstruction on level 4
[4] Building level 4
[5] Building level 4
[1] Building level 5
Creating AMGLevel 
[0] Building level 5
Reconstruction on level 5
[4] Building level 5
[5] Building level 5
[1] Building level 6
Creating AMGLevel 
[0] Building level 6
Reconstruction on level 6
[1] Building level 7
[4] Building level 6
Creating AMGLevel 
[1] Building level 8
[0] Building level 7
Reconstruction on level 7
[5] Building level 6
[1] Building level 9
[1] Building level 10
Creating AMGLevel 
[0] Building level 8
Reconstruction on level 8
[1] Building level 11
[1] Building level 12
[1] Building level 13
[1] Building level 14
[4] Building level 7
Creating AMGLevel 
[0] Building level 9
Reconstruction on level 9
[5] Building level 7
Creating AMGLevel 
[0] Building level 10
Reconstruction on level 10
Creating AMGLevel 
[0] Building level 11
Reconstruction on level 11
Creating AMGLevel 
[0] Building level 12
Reconstruction on level 12
Creating AMGLevel 
[0] Building level 13
Reconstruction on level 13
Creating AMGLevel 
[0] Building level 14
Reconstruction on level 14
Creating AMGLevel 
14 Level construction complete
[4] Building level 8
[5] Building level 8
[4] Building level 9
[5] Building level 9
[4] Building level 10
[4] Building level 11
[5] Building level 10
[4] Building level 12
[4] Building level 13
[5] Building level 11
[4] Building level 14
[5] Building level 12
[5] Building level 13
[5] Building level 14
initial dot_x = 115035
GMRES:  Solving for topLevelCorr, Initial residual = 0.843879, Final residual = 0.847577, No Iterations 200
Iter #1 residual = 0.00357964
GMRES:  Solving for topLevelCorr, Initial residual = 0.92456, Final residual = 1.03284, No Iterations 200
Iter #2 residual = 0.00345531
GMRES:  Solving for topLevelCorr, Initial residual = 0.905921, Final residual = 1.08036, No Iterations 200
Iter #3 residual = 0.00313494
GMRES:  Solving for topLevelCorr, Initial residual = 0.859761, Final residual = 0.975688, No Iterations 200
Iter #4 residual = 0.002397
GMRES:  Solving for topLevelCorr, Initial residual = 0.918389, Final residual = 1.13029, No Iterations 200
Iter #5 residual = 0.00269032
GMRES:  Solving for topLevelCorr, Initial residual = 0.860057, Final residual = 0.928831, No Iterations 200
Iter #6 residual = 0.00204374
GMRES:  Solving for topLevelCorr, Initial residual = 0.929534, Final residual = 1.17883, No Iterations 200
Iter #7 residual = 0.00293732
Iter #8 residual = 0.0252732
Iter #9 residual = 0.0182398
Iter #10 residual = 0.0174772
Iter #11 residual = 0.0211452
Iter #12 residual = 0.00776126
Iter #13 residual = 0.0104133
Iter #14 residual = 0.0157095
Iter #15 residual = 0.008988
Iter #16 residual = 0.0174365
Iter #17 residual = 0.0176724
Iter #18 residual = 0.00502531
Iter #19 residual = 0.0101848
Iter #20 residual = 0.00893296
Iter #21 residual = 0.00662423
Iter #22 residual = 0.00431433
Iter #23 residual = 0.00671981
Iter #24 residual = 0.00612823
Iter #25 residual = 0.00532362
Iter #26 residual = 0.00414321
Iter #27 residual = 0.00327583
Iter #28 residual = 0.00339486
Iter #29 residual = 0.00496189
Iter #30 residual = 0.00297704
Iter #31 residual = 0.00837591
Iter #32 residual = 0.00781755
Iter #33 residual = 0.00579116
Iter #34 residual = 0.00345304
Iter #35 residual = 0.0050994
Iter #36 residual = 0.0055022
Iter #37 residual = 0.00555377
Iter #38 residual = 0.00270057
Iter #39 residual = 0.003226
Iter #40 residual = 0.00237484
Iter #41 residual = 0.00347372
Iter #42 residual = 0.00248132
Iter #43 residual = 0.00391533
Iter #44 residual = 0.0048475
Iter #45 residual = 0.0020113
GMRES:  Solving for topLevelCorr, Initial residual = 0.856415, Final residual = 0.905089, No Iterations 200
Iter #46 residual = 0.000631402
GMRES:  Solving for topLevelCorr, Initial residual = 0.923629, Final residual = 1.15297, No Iterations 200
Iter #47 residual = 0.000836955
Iter #48 residual = 0.00359339
Iter #49 residual = 0.00238799
Iter #50 residual = 0.00464604
GPU: 50 iters: 9.40825 s: 2.318 GB/s
GPUAMG:  Solving for pd, Initial residual = 0.00446197, Final residual = 0.00479727, No Iterations 50
[0] Building level 0
[1] Building level 0
[2] Building level 0
[3] Building level 0
[4] Building level 0
[5] Building level 0
[1] Building level 1
[5] Building level 1
[0] Building level 1
[3] Building level 1
[4] Building level 1
[2] Building level 1
[1] Building level 2
[0] Building level 2
[3] Building level 2
[5] Building level 2
[2] Building level 2
[4] Building level 2
[1] Building level 3
[3] Building level 3
[0] Building level 3
[5] Building level 3
[2] Building level 3
[4] Building level 3
[1] Building level 4
[3] Building level 4
[2] Building level 4
[0] Building level 4
[5] Building level 4
[4] Building level 4
[1] Building level 5
[3] Building level 5
[0] Building level 5
[1] Building level 6
[2] Building level 5
[5] Building level 5
[1] Building level 7
[4] Building level 5
[3] Building level 6
[1] Building level 8
[0] Building level 6
[1] Building level 9
[1] Building level 10
[2] Building level 6
[1] Building level 11
[1] Building level 12
[1] Building level 13
[1] Building level 14
[3] Building level 7
[0] Building level 7
[5] Building level 6
[3] Building level 8
[0] Building level 8
[2] Building level 7
[4] Building level 6
[3] Building level 9
[0] Building level 9
[3] Building level 10
[0] Building level 10
[3] Building level 11
[0] Building level 11
[3] Building level 12
[0] Building level 12
[3] Building level 13
[0] Building level 13
[3] Building level 14
[2] Building level 8
[0] Building level 14
14 Level construction complete
[2] Building level 9
[5] Building level 7
[2] Building level 10
[2] Building level 11
[2] Building level 12
[4] Building level 7
[2] Building level 13
[2] Building level 14
[5] Building level 8
[5] Building level 9
[4] Building level 8
[5] Building level 10
[5] Building level 11
[5] Building level 12
[5] Building level 13
[4] Building level 9
[5] Building level 14
[4] Building level 10
[4] Building level 11
[4] Building level 12
[4] Building level 13
[4] Building level 14
initial dot_x = 5.6066e+09
Iter #1 residual = 0.0193831
Iter #2 residual = 0.00729269
Iter #3 residual = 0.00776563
Iter #4 residual = 0.00721391
Iter #5 residual = 0.00734725
Iter #6 residual = 0.00497836
Iter #7 residual = 0.00749847
Iter #8 residual = 0.00600385
Iter #9 residual = 0.0094268
Iter #10 residual = 0.00451585
Iter #11 residual = 0.00362737
Iter #12 residual = 0.00376066
Iter #13 residual = 0.00340257
Iter #14 residual = 0.00540184
Iter #15 residual = 0.00318031
Iter #16 residual = 0.00499748
Iter #17 residual = 0.00323156
Iter #18 residual = 0.00500464
Iter #19 residual = 0.00294638
Iter #20 residual = 0.00110477
GMRES:  Solving for topLevelCorr, Initial residual = 0.921837, Final residual = 1.16287, No Iterations 200
Iter #21 residual = 0.00128835
Iter #22 residual = 0.0105081
Iter #23 residual = 0.010036
Iter #24 residual = 0.00293038
Iter #25 residual = 0.00808444
Iter #26 residual = 0.011557
Iter #27 residual = 0.00400987
Iter #28 residual = 0.00236945
Iter #29 residual = 0.0022503
Iter #30 residual = 0.00449805
Iter #31 residual = 0.00272154
Iter #32 residual = 0.00562325
Iter #33 residual = 0.00560773
Iter #34 residual = 0.00243681
Iter #35 residual = 0.00169312
Iter #36 residual = 0.0010089
Iter #37 residual = 0.00244398
Iter #38 residual = 0.00315077
Iter #39 residual = 0.00276957
Iter #40 residual = 0.00155799
Iter #41 residual = 0.00173671
Iter #42 residual = 0.00136612
Iter #43 residual = 0.00225453
Iter #44 residual = 0.0022742
Iter #45 residual = 0.00186387
Iter #46 residual = 0.00196123
Iter #47 residual = 0.00226752
Iter #48 residual = 0.00111696
Iter #49 residual = 0.0012478
Iter #50 residual = 0.000924028
GPU: 50 iters: 9.38869 s: 2.32283 GB/s
GPUAMG:  Solving for pd, Initial residual = 0.00952679, Final residual = 0.00189627, No Iterations 50
[0] Building level 0
[1] Building level 0
[2] Building level 0
[3] Building level 0
[4] Building level 0
[5] Building level 0
[1] Building level 1
[5] Building level 1
[0] Building level 1
[4] Building level 1
[3] Building level 1
[2] Building level 1
[1] Building level 2
[0] Building level 2
[3] Building level 2
[5] Building level 2
[2] Building level 2
[4] Building level 2
[1] Building level 3
[3] Building level 3
[5] Building level 3
[0] Building level 3
[2] Building level 3
[4] Building level 3
[1] Building level 4
[3] Building level 4
[2] Building level 4
[0] Building level 4
[5] Building level 4
[4] Building level 4
[1] Building level 5
[3] Building level 5
[0] Building level 5
[1] Building level 6
[2] Building level 5
[5] Building level 5
[1] Building level 7
[4] Building level 5
[1] Building level 8
[3] Building level 6
[0] Building level 6
[1] Building level 9
[1] Building level 10
[2] Building level 6
[1] Building level 11
[1] Building level 12
[1] Building level 13
[1] Building level 14
[0] Building level 7
[3] Building level 7
[5] Building level 6
[2] Building level 7
[0] Building level 8
[3] Building level 8
[4] Building level 6
[0] Building level 9
[3] Building level 9
[0] Building level 10
[2] Building level 8
[3] Building level 10
[0] Building level 11
[5] Building level 7
[3] Building level 11
[0] Building level 12
[0] Building level 13
[3] Building level 12
[0] Building level 14
14 Level construction complete
[3] Building level 13
[3] Building level 14
[2] Building level 9
[2] Building level 10
[2] Building level 11
[5] Building level 8
[2] Building level 12
[2] Building level 13
[2] Building level 14
[4] Building level 7
[5] Building level 9
[5] Building level 10
[5] Building level 11
[5] Building level 12
[5] Building level 13
[5] Building level 14
[4] Building level 8
[4] Building level 9
[4] Building level 10
[4] Building level 11
[4] Building level 12
[4] Building level 13
[4] Building level 14
initial dot_x = 1.18585e+07
Iter #1 residual = 0.0258792
Iter #2 residual = 0.0158792
Iter #3 residual = 0.0153395
Iter #4 residual = 0.0147645
Iter #5 residual = 0.00645324
Iter #6 residual = 0.0187362
Iter #7 residual = 0.00842278
Iter #8 residual = 0.00739516
Iter #9 residual = 0.00698016
Iter #10 residual = 0.00531052
Iter #11 residual = 0.00862876
Iter #12 residual = 0.00514183
Iter #13 residual = 0.0113349
Iter #14 residual = 0.00732295
Iter #15 residual = 0.00717283
Iter #16 residual = 0.00556231
Iter #17 residual = 0.0109261
Iter #18 residual = 0.0105816
Iter #19 residual = 0.00762036
Iter #20 residual = 0.00803939
Iter #21 residual = 0.00506672
Iter #22 residual = 0.00450897
Iter #23 residual = 0.0055851
Iter #24 residual = 0.00420399
Iter #25 residual = 0.00924811
Iter #26 residual = 0.00450459
Iter #27 residual = 0.00490143
Iter #28 residual = 0.00350734
Iter #29 residual = 0.00647897
Iter #30 residual = 0.0039767
Iter #31 residual = 0.00890233
Iter #32 residual = 0.00346376
Iter #33 residual = 0.00416873
Iter #34 residual = 0.00373953
Iter #35 residual = 0.00397665
Iter #36 residual = 0.00250075
Iter #37 residual = 0.00383227
Iter #38 residual = 0.0026713
Iter #39 residual = 0.00490613
Iter #40 residual = 0.00218287
Iter #41 residual = 0.00141941
Iter #42 residual = 0.00299243
Iter #43 residual = 0.00221838
Iter #44 residual = 0.000903668
Iter #45 residual = 0.00226949
Iter #46 residual = 0.0019453
Iter #47 residual = 0.00191629
Iter #48 residual = 0.0012886
Iter #49 residual = 0.00202824
Iter #50 residual = 0.00160215
GPU: 50 iters: 9.43326 s: 2.31185 GB/s
GPUAMG:  Solving for pd, Initial residual = 0.00655039, Final residual = 0.00326317, No Iterations 50
time step continuity errors : sum local = 1.88869e-07, global = -4.12182e-08, cumulative = -4.12182e-08
ExecutionTime = 123.51 s  ClockTime = 139 s

Courant Number mean: 1.26324e-05 max: 0.188233 velocity magnitude: 1.47057
Time = 0.003

MULES: Solving for alpha1
Liquid phase volume fraction = 0.00275424  Min(alpha1) = -1.92876e-31  Max(alpha1) = 1
MULES: Solving for alpha1
Liquid phase volume fraction = 0.00275426  Min(alpha1) = -5.22079e-30  Max(alpha1) = 1
[1] Building level 0
[2] Building level 0
[0] Building level 0
[5] Building level 0
[4] Building level 0
[3] Building level 0
[1] Building level 1
[0] Building level 1
Reconstruction on level 1
[5] Building level 1
[4] Building level 1
[3] Building level 1
[2] Building level 1
[1] Building level 2
[3] Building level 2
[4] Building level 2
[2] Building level 2
[3] Building level 3
[2] Building level 3
[2] Building level 4
[3] Building level 4
[1] Building level 3
[4] Building level 3
[2] Building level 5
[3] Building level 5
Creating AMGLevel 
[5] Building level 2
[0] Building level 2
Reconstruction on level 2
[2] Building level 6
[3] Building level 6
[1] Building level 4
[4] Building level 4
[2] Building level 7
[3] Building level 7
[2] Building level 8
[3] Building level 8
[2] Building level 9
[3] Building level 9
[2] Building level 10
[3] Building level 10
[2] Building level 11
[3] Building level 11
[2] Building level 12
[2] Building level 13
[3] Building level 12
[2] Building level 14
[3] Building level 13
[3] Building level 14
[1] Building level 5
[4] Building level 5
Creating AMGLevel 
[5] Building level 3
[0] Building level 3
Reconstruction on level 3
[1] Building level 6
[4] Building level 6
[1] Building level 7
[4] Building level 7
[1] Building level 8
[4] Building level 8
[1] Building level 9
[4] Building level 9
[1] Building level 10
[1] Building level 11
[4] Building level 10
[1] Building level 12
[1] Building level 13
[4] Building level 11
[1] Building level 14
[4] Building level 12
[4] Building level 13
[4] Building level 14
Creating AMGLevel 
[5] Building level 4
[0] Building level 4
Reconstruction on level 4
Creating AMGLevel 
[0] Building level 5
Reconstruction on level 5
[5] Building level 5
Creating AMGLevel 
[0] Building level 6
Reconstruction on level 6
[5] Building level 6
Creating AMGLevel 
[5] Building level 7
[0] Building level 7
Reconstruction on level 7
Creating AMGLevel 
[5] Building level 8
[0] Building level 8
Reconstruction on level 8
[5] Building level 9
Creating AMGLevel 
[0] Building level 9
Reconstruction on level 9
[5] Building level 10
Creating AMGLevel 
[0] Building level 10
Reconstruction on level 10
[5] Building level 11
Creating AMGLevel 
[0] Building level 11
Reconstruction on level 11
[5] Building level 12
Creating AMGLevel 
[0] Building level 12
Reconstruction on level 12
[5] Building level 13
Creating AMGLevel 
[0] Building level 13
Reconstruction on level 13
[5] Building level 14
Creating AMGLevel 
[0] Building level 14
Reconstruction on level 14
Creating AMGLevel 
14 Level construction complete
initial dot_x = 6.74153e+09
Iter #1 residual = 0.0689209
Iter #2 residual = 0.0448477
Iter #3 residual = 0.0145312
Iter #4 residual = 0.00979726
Iter #5 residual = 0.00671003
Iter #6 residual = 0.00551564
Iter #7 residual = 0.0059325
Iter #8 residual = 0.00455276
Iter #9 residual = 0.00447148
Iter #10 residual = 0.004213
Iter #11 residual = 0.0043984
Iter #12 residual = 0.00423019
Iter #13 residual = 0.00464809
Iter #14 residual = 0.00411964
Iter #15 residual = 0.00402484
Iter #16 residual = 0.00505468
Iter #17 residual = 0.00592754
Iter #18 residual = 0.0122276
Iter #19 residual = 0.00752299
Iter #20 residual = 0.0196335
Iter #21 residual = 0.0188599
Iter #22 residual = 0.0303114
Iter #23 residual = 0.0165007
Iter #24 residual = 0.00812677
Iter #25 residual = 0.00332357
Iter #26 residual = 0.00272445
Iter #27 residual = 0.00233931
Iter #28 residual = 0.00214643
Iter #29 residual = 0.00183757
Iter #30 residual = 0.00225862
Iter #31 residual = 0.00155666
Iter #32 residual = 0.00608722
Iter #33 residual = 0.0039111
Iter #34 residual = 0.00215755
Iter #35 residual = 0.00395312
Iter #36 residual = 0.00216885
Iter #37 residual = 0.00124823
GPU: 37 iters: 6.33787 s: 2.54631 GB/s
GPUAMG:  Solving for pd, Initial residual = 0.0151676, Final residual = 0.000543993, No Iterations 37
[1] Building level 0
[2] Building level 0
[0] Building level 0
[3] Building level 0
[5] Building level 0
[4] Building level 0
[0] Building level 1
[1] Building level 1
[5] Building level 1
[4] Building level 1
[2] Building level 1
[3] Building level 1
[1] Building level 2
[2] Building level 2
[0] Building level 2
[3] Building level 2
[5] Building level 2
[4] Building level 2
[1] Building level 3
[2] Building level 3
[0] Building level 3
[3] Building level 3
[5] Building level 3
[4] Building level 3
[2] Building level 4
[0] Building level 4
[1] Building level 4
[3] Building level 4
[5] Building level 4
[4] Building level 4
[2] Building level 5
[0] Building level 5
[1] Building level 5
[3] Building level 5
[5] Building level 5
[4] Building level 5
[2] Building level 6
[0] Building level 6
[1] Building level 6
[2] Building level 7
[0] Building level 7
[1] Building level 7
[3] Building level 6
[2] Building level 8
[5] Building level 6
[4] Building level 6
[0] Building level 8
[2] Building level 9
[2] Building level 10
[1] Building level 8
[2] Building level 11
[2] Building level 12
[0] Building level 9
[2] Building level 13
[2] Building level 14
[0] Building level 10
[1] Building level 9
[0] Building level 11
[0] Building level 12
[0] Building level 13
[0] Building level 14
14 Level construction complete
[1] Building level 10
[3] Building level 7
[1] Building level 11
[1] Building level 12
[1] Building level 13
[1] Building level 14
[5] Building level 7
[4] Building level 7
[3] Building level 8
[5] Building level 8
[4] Building level 8
[3] Building level 9
[3] Building level 10
[4] Building level 9
[5] Building level 9
[3] Building level 11
[3] Building level 12
[3] Building level 13
[3] Building level 14
[4] Building level 10
[5] Building level 10
[4] Building level 11
[5] Building level 11
[4] Building level 12
[4] Building level 13
[5] Building level 12
[4] Building level 14
[5] Building level 13
[5] Building level 14
initial dot_x = 1.43839e+09
Iter #1 residual = 0.0132072
Iter #2 residual = 0.010187
Iter #3 residual = 0.0237029
Iter #4 residual = 0.0148522
Iter #5 residual = 0.00814938
Iter #6 residual = 0.0170247
Iter #7 residual = 0.00928823
Iter #8 residual = 0.00440976
Iter #9 residual = 0.00309908
Iter #10 residual = 0.0022153
Iter #11 residual = 0.00263671
Iter #12 residual = 0.00224491
Iter #13 residual = 0.00223309
Iter #14 residual = 0.00203998
Iter #15 residual = 0.00200633
Iter #16 residual = 0.00202649
Iter #17 residual = 0.00251902
Iter #18 residual = 0.00367409
Iter #19 residual = 0.00266524
Iter #20 residual = 0.00165589
Iter #21 residual = 0.000807216
Iter #22 residual = 0.000806324
Iter #23 residual = 0.000551005
Iter #24 residual = 0.00102757
Iter #25 residual = 0.000799615
Iter #26 residual = 0.000892329
Iter #27 residual = 0.000593841
Iter #28 residual = 0.00053882
Iter #29 residual = 0.000300708
Iter #30 residual = 0.000433567
Iter #31 residual = 0.000331826
GPU: 31 iters: 5.33008 s: 2.53676 GB/s
GPUAMG:  Solving for pd, Initial residual = 0.00584694, Final residual = 0.00013924, No Iterations 31
[0] Building level 0
[2] Building level 0
[1] Building level 0
[4] Building level 0
[3] Building level 0
[5] Building level 0
[0] Building level 1
[5] Building level 1
[1] Building level 1
[3] Building level 1
[4] Building level 1
[2] Building level 1
[1] Building level 2
[5] Building level 2
[0] Building level 2
[3] Building level 2
[2] Building level 2
[4] Building level 2
[5] Building level 3
[1] Building level 3
[3] Building level 3
[0] Building level 3
[2] Building level 3
[4] Building level 3
[0] Building level 4
[2] Building level 4
[1] Building level 4
[3] Building level 4
[5] Building level 4
[4] Building level 4
[0] Building level 5
[2] Building level 5
[1] Building level 5
[5] Building level 5
[3] Building level 5
[4] Building level 5
[0] Building level 6
[2] Building level 6
[1] Building level 6
[5] Building level 6
[3] Building level 6
[0] Building level 7
[2] Building level 7
[1] Building level 7
[0] Building level 8
[2] Building level 8
[0] Building level 9
[2] Building level 9
[1] Building level 8
[4] Building level 6
[5] Building level 7
[0] Building level 10
[3] Building level 7
[2] Building level 10
[0] Building level 11
[2] Building level 11
[0] Building level 12
[0] Building level 13
[2] Building level 12
[0] Building level 14
[2] Building level 13
14 Level construction complete
[2] Building level 14
[1] Building level 9
[1] Building level 10
[1] Building level 11
[5] Building level 8
[1] Building level 12
[1] Building level 13
[3] Building level 8
[1] Building level 14
[5] Building level 9
[3] Building level 9
[5] Building level 10
[4] Building level 7
[3] Building level 10
[5] Building level 11
[5] Building level 12
[3] Building level 11
[5] Building level 13
[5] Building level 14
[3] Building level 12
[3] Building level 13
[3] Building level 14
[4] Building level 8
[4] Building level 9
[4] Building level 10
[4] Building level 11
[4] Building level 12
[4] Building level 13
[4] Building level 14
initial dot_x = 5.42891e+08
Iter #1 residual = 0.0146212
Iter #2 residual = 0.0127816
Iter #3 residual = 0.0120497
Iter #4 residual = 0.0112824
Iter #5 residual = 0.0105909
Iter #6 residual = 0.00664015
Iter #7 residual = 0.0253439
Iter #8 residual = 0.0155277
Iter #9 residual = 0.0136541
Iter #10 residual = 0.00983258
Iter #11 residual = 0.00421167
Iter #12 residual = 0.00223002
Iter #13 residual = 0.00375361
Iter #14 residual = 0.00241245
Iter #15 residual = 0.00512229
Iter #16 residual = 0.00421834
Iter #17 residual = 0.00400135
Iter #18 residual = 0.00254361
Iter #19 residual = 0.00125567
Iter #20 residual = 0.000803679
Iter #21 residual = 0.000598039
Iter #22 residual = 0.00130437
Iter #23 residual = 0.00135567
Iter #24 residual = 0.000485098
Iter #25 residual = 0.000569699
Iter #26 residual = 0.000450852
Iter #27 residual = 0.000267312
Iter #28 residual = 0.00017953
Iter #29 residual = 0.000204868
Iter #30 residual = 0.000160536
Iter #31 residual = 0.000347352
Iter #32 residual = 0.000230347
Iter #33 residual = 0.000321722
Iter #34 residual = 0.000308873
Iter #35 residual = 0.000614984
Iter #36 residual = 0.000370283
Iter #37 residual = 0.000228903
Iter #38 residual = 0.000199319
Iter #39 residual = 0.000142753
Iter #40 residual = 9.05546e-05
Iter #41 residual = 5.16104e-05
Iter #42 residual = 3.5108e-05
Iter #43 residual = 3.0316e-05
Iter #44 residual = 2.59979e-05
Iter #45 residual = 2.41536e-05
Iter #46 residual = 6.6163e-05
Iter #47 residual = 4.10349e-05
Iter #48 residual = 3.40722e-05
Iter #49 residual = 2.32411e-05
Iter #50 residual = 2.08626e-05
GPU: 50 iters: 8.57041 s: 2.54461 GB/s
GPUAMG:  Solving for pd, Initial residual = 0.00529478, Final residual = 5.56509e-05, No Iterations 50
time step continuity errors : sum local = 2.50079e-08, global = -2.23289e-08, cumulative = -6.35471e-08
ExecutionTime = 175 s  ClockTime = 192 s

Courant Number mean: 1.63427e-05 max: 0.131481 velocity magnitude: 1.0272
Time = 0.004

MULES: Solving for alpha1
Liquid phase volume fraction = 0.00275427  Min(alpha1) = -1.07056e-29  Max(alpha1) = 1
MULES: Solving for alpha1
Liquid phase volume fraction = 0.00275428  Min(alpha1) = -2.97321e-33  Max(alpha1) = 1
[2] Building level 0
[1] Building level 0
[0] Building level 0
[5] Building level 0
[4] Building level 0
[3] Building level 0
[5] Building level 1
[1] Building level 1
[0] Building level 1
Reconstruction on level 1
[4] Building level 1
[3] Building level 1
[2] Building level 1
[3] Building level 2
[2] Building level 2
[3] Building level 3
[2] Building level 3
[2] Building level 4
[3] Building level 4
[3] Building level 5
[2] Building level 5
Creating AMGLevel 
[4] Building level 2
[5] Building level 2
[0] Building level 2
Reconstruction on level 2
[1] Building level 2
[3] Building level 6
[2] Building level 6
[3] Building level 7
[2] Building level 7
[3] Building level 8
[2] Building level 8
[3] Building level 9
[2] Building level 9
[3] Building level 10
[2] Building level 10
[3] Building level 11
[2] Building level 11
[3] Building level 12
[2] Building level 12
[3] Building level 13
[2] Building level 13
[3] Building level 14
[2] Building level 14
Creating AMGLevel 
[5] Building level 3
[1] Building level 3
[0] Building level 3
Reconstruction on level 3
[4] Building level 3
Creating AMGLevel 
[5] Building level 4
[4] Building level 4
[1] Building level 4
[0] Building level 4
Reconstruction on level 4
[4] Building level 5
[5] Building level 5
Creating AMGLevel 
[1] Building level 5
[0] Building level 5
Reconstruction on level 5
[4] Building level 6
[5] Building level 6
Creating AMGLevel 
[0] Building level 6
Reconstruction on level 6
[1] Building level 6
[4] Building level 7
[5] Building level 7
Creating AMGLevel 
[0] Building level 7
Reconstruction on level 7
[1] Building level 7
[4] Building level 8
[5] Building level 8
Creating AMGLevel 
[0] Building level 8
Reconstruction on level 8
[1] Building level 8
[4] Building level 9
[5] Building level 9
Creating AMGLevel 
[1] Building level 9
[0] Building level 9
Reconstruction on level 9
[4] Building level 10
[5] Building level 10
[5] Building level 11
[4] Building level 11
[1] Building level 10
Creating AMGLevel 
[0] Building level 10
Reconstruction on level 10
[5] Building level 12
[4] Building level 12
[5] Building level 13
[4] Building level 13
Creating AMGLevel 
[0] Building level 11
Reconstruction on level 11
[1] Building level 11
[5] Building level 14
[4] Building level 14
Creating AMGLevel 
[0] Building level 12
Reconstruction on level 12
[1] Building level 12
Creating AMGLevel 
[0] Building level 13
Reconstruction on level 13
[1] Building level 13
Creating AMGLevel 
[0] Building level 14
Reconstruction on level 14
[1] Building level 14
Creating AMGLevel 
14 Level construction complete
initial dot_x = 2.19139e+09
Iter #1 residual = 0.0213356
Iter #2 residual = 0.0165935
Iter #3 residual = 0.0105805
Iter #4 residual = 0.0157973
Iter #5 residual = 0.00993035
Iter #6 residual = 0.0186714
Iter #7 residual = 0.0106158
Iter #8 residual = 0.022017
Iter #9 residual = 0.0459538
Iter #10 residual = 0.0188319
Iter #11 residual = 0.0121693
Iter #12 residual = 0.00762677
Iter #13 residual = 0.00314854
Iter #14 residual = 0.00244104
Iter #15 residual = 0.00191887
Iter #16 residual = 0.00125385
Iter #17 residual = 0.00202991
Iter #18 residual = 0.00232855
Iter #19 residual = 0.00109923
Iter #20 residual = 0.00144599
Iter #21 residual = 0.00108797
GPU: 21 iters: 3.65207 s: 2.50803 GB/s
GPUAMG:  Solving for pd, Initial residual = 0.0167786, Final residual = 0.000559329, No Iterations 21
[2] Building level 0
[1] Building level 0
[0] Building level 0
[3] Building level 0
[4] Building level 0
[5] Building level 0
[0] Building level 1
[5] Building level 1
[1] Building level 1
[2] Building level 1
[4] Building level 1
[3] Building level 1
[0] Building level 2
[5] Building level 2
[2] Building level 2
[1] Building level 2
[3] Building level 2
[4] Building level 2
[0] Building level 3
[2] Building level 3
[1] Building level 3
[5] Building level 3
[3] Building level 3
[4] Building level 3
[1] Building level 4
[3] Building level 4
[2] Building level 4
[5] Building level 4
[0] Building level 4
[4] Building level 4
[1] Building level 5
[3] Building level 5
[2] Building level 5
[5] Building level 5
[0] Building level 5
[4] Building level 5
[1] Building level 6
[3] Building level 6
[2] Building level 6
[5] Building level 6
[0] Building level 6
[1] Building level 7
[3] Building level 7
[2] Building level 7
[5] Building level 7
[1] Building level 8
[4] Building level 6
[3] Building level 8
[0] Building level 7
[2] Building level 8
[1] Building level 9
[5] Building level 8
[3] Building level 9
[1] Building level 10
[2] Building level 9
[3] Building level 10
[1] Building level 11
[1] Building level 12
[1] Building level 13
[3] Building level 11
[5] Building level 9
[1] Building level 14
[3] Building level 12
[2] Building level 10
[3] Building level 13
[3] Building level 14
[2] Building level 11
[0] Building level 8
[5] Building level 10
[2] Building level 12
[2] Building level 13
[2] Building level 14
[5] Building level 11
[5] Building level 12
[5] Building level 13
[5] Building level 14
[0] Building level 9
[4] Building level 7
[0] Building level 10
[0] Building level 11
[0] Building level 12
[0] Building level 13
[0] Building level 14
14 Level construction complete
[4] Building level 8
[4] Building level 9
[4] Building level 10
[4] Building level 11
[4] Building level 12
[4] Building level 13
[4] Building level 14
initial dot_x = 1.58651e+09
Iter #1 residual = 0.00719372
Iter #2 residual = 0.00938851
Iter #3 residual = 0.00539253
Iter #4 residual = 0.00578485
Iter #5 residual = 0.00550101
Iter #6 residual = 0.00423454
Iter #7 residual = 0.0072904
Iter #8 residual = 0.00405369
Iter #9 residual = 0.00571994
Iter #10 residual = 0.0125764
Iter #11 residual = 0.0071262
Iter #12 residual = 0.00293351
Iter #13 residual = 0.00194
Iter #14 residual = 0.00468309
Iter #15 residual = 0.0046323
Iter #16 residual = 0.00139017
Iter #17 residual = 0.00462965
Iter #18 residual = 0.00238267
Iter #19 residual = 0.0013266
Iter #20 residual = 0.000529607
Iter #21 residual = 0.000623154
Iter #22 residual = 0.000434631
GPU: 22 iters: 3.79596 s: 2.52786 GB/s
GPUAMG:  Solving for pd, Initial residual = 0.00781322, Final residual = 0.000362148, No Iterations 22
[0] Building level 0
[1] Building level 0
[2] Building level 0
[5] Building level 0
[4] Building level 0
[3] Building level 0
[5] Building level 1
[4] Building level 1
[3] Building level 1
[1] Building level 1
[0] Building level 1
[2] Building level 1
[3] Building level 2
[5] Building level 2
[4] Building level 2
[0] Building level 2
[1] Building level 2
[2] Building level 2
[3] Building level 3
[5] Building level 3
[4] Building level 3
[0] Building level 3
[2] Building level 3
[1] Building level 3
[3] Building level 4
[5] Building level 4
[4] Building level 4
[1] Building level 4
[2] Building level 4
[0] Building level 4
[3] Building level 5
[5] Building level 5
[4] Building level 5
[3] Building level 6
[1] Building level 5
[2] Building level 5
[3] Building level 7
[5] Building level 6
[0] Building level 5
[3] Building level 8
[4] Building level 6
[3] Building level 9
[3] Building level 10
[3] Building level 11
[3] Building level 12
[3] Building level 13
[5] Building level 7
[3] Building level 14
[1] Building level 6
[2] Building level 6
[5] Building level 8
[4] Building level 7
[5] Building level 9
[5] Building level 10
[5] Building level 11
[5] Building level 12
[4] Building level 8
[5] Building level 13
[5] Building level 14
[1] Building level 7
[0] Building level 6
[2] Building level 7
[4] Building level 9
[4] Building level 10
[4] Building level 11
[4] Building level 12
[4] Building level 13
[4] Building level 14
[1] Building level 8
[2] Building level 8
[1] Building level 9
[2] Building level 9
[1] Building level 10
[2] Building level 10
[1] Building level 11
[2] Building level 11
[1] Building level 12
[0] Building level 7
[1] Building level 13
[1] Building level 14
[2] Building level 12
[2] Building level 13
[2] Building level 14
[0] Building level 8
[0] Building level 9
[0] Building level 10
[0] Building level 11
[0] Building level 12
[0] Building level 13
[0] Building level 14
14 Level construction complete
initial dot_x = 2.15932e+08
Iter #1 residual = 0.00905007
Iter #2 residual = 0.00704811
Iter #3 residual = 0.00482818
Iter #4 residual = 0.00999329
Iter #5 residual = 0.0057509
Iter #6 residual = 0.0075033
Iter #7 residual = 0.0169231
Iter #8 residual = 0.00738083
Iter #9 residual = 0.00457113
Iter #10 residual = 0.00527028
Iter #11 residual = 0.00305309
Iter #12 residual = 0.00273259
Iter #13 residual = 0.0014972
Iter #14 residual = 0.000990438
Iter #15 residual = 0.000675345
Iter #16 residual = 0.000677139
Iter #17 residual = 0.00140823
Iter #18 residual = 0.000807301
Iter #19 residual = 0.00169709
Iter #20 residual = 0.00119048
Iter #21 residual = 0.00042106
Iter #22 residual = 0.000244059
Iter #23 residual = 0.000319855
Iter #24 residual = 0.000223479
Iter #25 residual = 0.000338527
Iter #26 residual = 0.000189477
Iter #27 residual = 0.000465194
Iter #28 residual = 0.00035097
Iter #29 residual = 9.75486e-05
Iter #30 residual = 0.00012214
Iter #31 residual = 8.33678e-05
Iter #32 residual = 0.000214237
Iter #33 residual = 0.00014797
Iter #34 residual = 0.000190322
Iter #35 residual = 8.81721e-05
Iter #36 residual = 0.000102161
Iter #37 residual = 0.000119359
Iter #38 residual = 5.9334e-05
Iter #39 residual = 0.000115694
Iter #40 residual = 7.95682e-05
Iter #41 residual = 5.71768e-05
Iter #42 residual = 4.61515e-05
Iter #43 residual = 4.30021e-05
Iter #44 residual = 2.04884e-05
Iter #45 residual = 1.72582e-05
Iter #46 residual = 1.06697e-05
Iter #47 residual = 9.03938e-06
Iter #48 residual = 7.00044e-06
Iter #49 residual = 5.01967e-06
Iter #50 residual = 4.52537e-06
GPU: 50 iters: 10.6382 s: 2.05 GB/s
GPUAMG:  Solving for pd, Initial residual = 0.00764052, Final residual = 6.78306e-06, No Iterations 50
time step continuity errors : sum local = 1.08348e-08, global = -1.05229e-08, cumulative = -7.40699e-08
ExecutionTime = 225.04 s  ClockTime = 243 s

Courant Number mean: 2.02829e-05 max: 0.0718596 velocity magnitude: 0.561403
Time = 0.005

MULES: Solving for alpha1
Liquid phase volume fraction = 0.00275429  Min(alpha1) = -1.0681e-32  Max(alpha1) = 1
MULES: Solving for alpha1
Liquid phase volume fraction = 0.00275429  Min(alpha1) = -3.41347e-31  Max(alpha1) = 1
[1] Building level 0
[2] Building level 0
[0] Building level 0
[5] Building level 0
[4] Building level 0
[3] Building level 0
[5] Building level 1
[3] Building level 1
[4] Building level 1
[1] Building level 1
[0] Building level 1
Reconstruction on level 1
[2] Building level 1
[3] Building level 2
[4] Building level 2
[2] Building level 2
[3] Building level 3
[2] Building level 3
[3] Building level 4
[2] Building level 4
[4] Building level 3
[3] Building level 5
[2] Building level 5
[5] Building level 2
[3] Building level 6
[4] Building level 4
Creating AMGLevel 
[3] Building level 7
[2] Building level 6
[0] Building level 2
Reconstruction on level 2
[1] Building level 2
[3] Building level 8
[3] Building level 9
[2] Building level 7
[3] Building level 10
[3] Building level 11
[3] Building level 12
[3] Building level 13
[3] Building level 14
[2] Building level 8
[4] Building level 5
[2] Building level 9
[2] Building level 10
[2] Building level 11
[2] Building level 12
[2] Building level 13
[2] Building level 14
[5] Building level 3
[4] Building level 6
[4] Building level 7
[4] Building level 8
[4] Building level 9
[4] Building level 10
[4] Building level 11
[4] Building level 12
[4] Building level 13
[4] Building level 14
Creating AMGLevel 
[0] Building level 3
Reconstruction on level 3
[1] Building level 3
[5] Building level 4
[5] Building level 5
Creating AMGLevel 
[0] Building level 4
Reconstruction on level 4
[1] Building level 4
[5] Building level 6
[5] Building level 7
[5] Building level 8
[5] Building level 9
[5] Building level 10
[5] Building level 11
[5] Building level 12
[5] Building level 13
Creating AMGLevel 
[5] Building level 14
[0] Building level 5
Reconstruction on level 5
[1] Building level 5
Creating AMGLevel 
[0] Building level 6
Reconstruction on level 6
[1] Building level 6
Creating AMGLevel 
[0] Building level 7
Reconstruction on level 7
[1] Building level 7
Creating AMGLevel 
[0] Building level 8
Reconstruction on level 8
[1] Building level 8
Creating AMGLevel 
[0] Building level 9
Reconstruction on level 9
[1] Building level 9
Creating AMGLevel 
[0] Building level 10
Reconstruction on level 10
Creating AMGLevel 
[0] Building level 11
Reconstruction on level 11
[1] Building level 10
Creating AMGLevel 
[0] Building level 12
Reconstruction on level 12
[1] Building level 11
Creating AMGLevel 
[0] Building level 13
Reconstruction on level 13
[1] Building level 12
Creating AMGLevel 
[0] Building level 14
Reconstruction on level 14
[1] Building level 13
Creating AMGLevel 
14 Level construction complete
[1] Building level 14
initial dot_x = 2.93471e+09
Iter #1 residual = 0.0580406
Iter #2 residual = 0.0342208
Iter #3 residual = 0.0146116
Iter #4 residual = 0.00777676
Iter #5 residual = 0.00668016
Iter #6 residual = 0.00645352
Iter #7 residual = 0.00504884
Iter #8 residual = 0.0142283
Iter #9 residual = 0.00917933
Iter #10 residual = 0.00607985
Iter #11 residual = 0.0190686
Iter #12 residual = 0.013694
Iter #13 residual = 0.0111585
Iter #14 residual = 0.0132987
Iter #15 residual = 0.00529115
Iter #16 residual = 0.00794579
Iter #17 residual = 0.00629876
Iter #18 residual = 0.00288336
Iter #19 residual = 0.0076683
Iter #20 residual = 0.00482253
Iter #21 residual = 0.00579043
Iter #22 residual = 0.00971262
Iter #23 residual = 0.00492923
Iter #24 residual = 0.00644181
Iter #25 residual = 0.00480657
Iter #26 residual = 0.00161457
Iter #27 residual = 0.00125812
GPU: 27 iters: 4.91777 s: 2.39468 GB/s
GPUAMG:  Solving for pd, Initial residual = 0.0151523, Final residual = 0.000684579, No Iterations 27
[1] Building level 0
[2] Building level 0
[0] Building level 0
[3] Building level 0
[4] Building level 0
[5] Building level 0
[5] Building level 1
[0] Building level 1
[1] Building level 1
[4] Building level 1
[3] Building level 1
[2] Building level 1
[3] Building level 2
[5] Building level 2
[4] Building level 2
[0] Building level 2
[1] Building level 2
[2] Building level 2
[3] Building level 3
[5] Building level 3
[4] Building level 3
[0] Building level 3
[1] Building level 3
[2] Building level 3
[3] Building level 4
[5] Building level 4
[0] Building level 4
[4] Building level 4
[2] Building level 4
[1] Building level 4
[3] Building level 5
[5] Building level 5
[0] Building level 5
[4] Building level 5
[3] Building level 6
[2] Building level 5
[1] Building level 5
[3] Building level 7
[5] Building level 6
[3] Building level 8
[4] Building level 6
[3] Building level 9
[0] Building level 6
[3] Building level 10
[3] Building level 11
[3] Building level 12
[3] Building level 13
[5] Building level 7
[3] Building level 14
[2] Building level 6
[5] Building level 8
[4] Building level 7
[1] Building level 6
[5] Building level 9
[0] Building level 7
[5] Building level 10
[5] Building level 11
[5] Building level 12
[5] Building level 13
[5] Building level 14
[4] Building level 8
[2] Building level 7
[0] Building level 8
[4] Building level 9
[4] Building level 10
[4] Building level 11
[4] Building level 12
[0] Building level 9
[4] Building level 13
[4] Building level 14
[2] Building level 8
[1] Building level 7
[0] Building level 10
[0] Building level 11
[0] Building level 12
[0] Building level 13
[2] Building level 9
[0] Building level 14
14 Level construction complete
[2] Building level 10
[2] Building level 11
[2] Building level 12
[2] Building level 13
[2] Building level 14
[1] Building level 8
[1] Building level 9
[1] Building level 10
[1] Building level 11
[1] Building level 12
[1] Building level 13
[1] Building level 14
initial dot_x = 2.55828e+09
Iter #1 residual = 0.0032828
Iter #2 residual = 0.00281978
Iter #3 residual = 0.0016148
Iter #4 residual = 0.0016082
Iter #5 residual = 0.00162067
Iter #6 residual = 0.00200998
Iter #7 residual = 0.00139569
Iter #8 residual = 0.000986848
Iter #9 residual = 0.00236634
Iter #10 residual = 0.00144969
Iter #11 residual = 0.00137543
Iter #12 residual = 0.00649231
Iter #13 residual = 0.00459336
Iter #14 residual = 0.00153069
Iter #15 residual = 0.00410786
Iter #16 residual = 0.00235776
Iter #17 residual = 0.00134168
Iter #18 residual = 0.000558659
Iter #19 residual = 0.00093496
Iter #20 residual = 0.000583898
Iter #21 residual = 0.00188674
Iter #22 residual = 0.00137264
Iter #23 residual = 0.000712296
Iter #24 residual = 0.000615804
Iter #25 residual = 0.000627786
Iter #26 residual = 0.000385623
GPU: 26 iters: 4.73708 s: 2.39395 GB/s
GPUAMG:  Solving for pd, Initial residual = 0.00748588, Final residual = 0.000324245, No Iterations 26
[1] Building level 0
[0] Building level 0
[2] Building level 0
[3] Building level 0
[5] Building level 0
[4] Building level 0
[5] Building level 1
[1] Building level 1
[0] Building level 1
[4] Building level 1
[3] Building level 1
[2] Building level 1
[5] Building level 2
[3] Building level 2
[2] Building level 2
[1] Building level 2
[4] Building level 2
[0] Building level 2
[5] Building level 3
[3] Building level 3
[2] Building level 3
[4] Building level 3
[0] Building level 3
[1] Building level 3
[3] Building level 4
[5] Building level 4
[2] Building level 4
[0] Building level 4
[4] Building level 4
[1] Building level 4
[3] Building level 5
[5] Building level 5
[2] Building level 5
[0] Building level 5
[3] Building level 6
[4] Building level 5
[5] Building level 6
[1] Building level 5
[3] Building level 7
[2] Building level 6
[3] Building level 8
[3] Building level 9
[5] Building level 7
[3] Building level 10
[4] Building level 6
[0] Building level 6
[3] Building level 11
[3] Building level 12
[3] Building level 13
[3] Building level 14
[2] Building level 7
[5] Building level 8
[5] Building level 9
[2] Building level 8
[5] Building level 10
[5] Building level 11
[5] Building level 12
[1] Building level 6
[5] Building level 13
[4] Building level 7
[5] Building level 14
[2] Building level 9
[0] Building level 7
[2] Building level 10
[2] Building level 11
[2] Building level 12
[2] Building level 13
[2] Building level 14
[4] Building level 8
[0] Building level 8
[4] Building level 9
[4] Building level 10
[1] Building level 7
[4] Building level 11
[0] Building level 9
[4] Building level 12
[4] Building level 13
[4] Building level 14
[0] Building level 10
[0] Building level 11
[0] Building level 12
[0] Building level 13
[0] Building level 14
14 Level construction complete
[1] Building level 8
[1] Building level 9
[1] Building level 10
[1] Building level 11
[1] Building level 12
[1] Building level 13
[1] Building level 14
initial dot_x = 1.66931e+09
Iter #1 residual = 0.00343424
Iter #2 residual = 0.00263124
Iter #3 residual = 0.00184881
Iter #4 residual = 0.00489983
Iter #5 residual = 0.00276139
Iter #6 residual = 0.00159742
Iter #7 residual = 0.00384328
Iter #8 residual = 0.00219276
Iter #9 residual = 0.000899578
Iter #10 residual = 0.00137668
Iter #11 residual = 0.000728108
Iter #12 residual = 0.00105447
Iter #13 residual = 0.000950681
Iter #14 residual = 0.000681813
Iter #15 residual = 0.000433794
Iter #16 residual = 0.00112226
Iter #17 residual = 0.000713658
Iter #18 residual = 0.000769401
Iter #19 residual = 0.000649564
Iter #20 residual = 0.00045293
Iter #21 residual = 0.000463113
Iter #22 residual = 0.0002719
Iter #23 residual = 0.00102968
Iter #24 residual = 0.000676215
Iter #25 residual = 0.000448911
Iter #26 residual = 0.000389192
Iter #27 residual = 0.000374498
Iter #28 residual = 0.000428386
Iter #29 residual = 0.000369804
Iter #30 residual = 0.000287803
Iter #31 residual = 0.000211936
Iter #32 residual = 0.00044676
Iter #33 residual = 0.00030453
Iter #34 residual = 0.000443495
Iter #35 residual = 0.00044106
Iter #36 residual = 0.000955617
Iter #37 residual = 0.000568204
Iter #38 residual = 0.000276718
Iter #39 residual = 0.000305285
Iter #40 residual = 0.000164261
Iter #41 residual = 0.000264251
Iter #42 residual = 0.000228129
Iter #43 residual = 0.000294288
Iter #44 residual = 0.000168343
Iter #45 residual = 0.000105006
Iter #46 residual = 7.73617e-05
Iter #47 residual = 5.62541e-05
Iter #48 residual = 3.5701e-05
Iter #49 residual = 2.63562e-05
Iter #50 residual = 2.0062e-05
GPU: 50 iters: 8.97844 s: 2.42897 GB/s
GPUAMG:  Solving for pd, Initial residual = 0.00738204, Final residual = 1.50029e-05, No Iterations 50
time step continuity errors : sum local = 3.21743e-09, global = -2.47779e-09, cumulative = -7.65477e-08
ExecutionTime = 277.33 s  ClockTime = 297 s

Courant Number mean: 2.43957e-05 max: 0.0233544 velocity magnitude: 0.256762
Time = 0.006

MULES: Solving for alpha1
Liquid phase volume fraction = 0.00275429  Min(alpha1) = -2.73805e-30  Max(alpha1) = 1
MULES: Solving for alpha1
Liquid phase volume fraction = 0.00275429  Min(alpha1) = -2.88971e-30  Max(alpha1) = 1
[1] Building level 0
[2] Building level 0
[0] Building level 0
[3] Building level 0
[4] Building level 0
[5] Building level 0
[5] Building level 1
[3] Building level 1
[4] Building level 1
[2] Building level 1
[1] Building level 1
[0] Building level 1
Reconstruction on level 1
[3] Building level 2
[2] Building level 2
[3] Building level 3
[2] Building level 3
[3] Building level 4
[2] Building level 4
[3] Building level 5
[2] Building level 5
[4] Building level 2
[5] Building level 2
[3] Building level 6
[3] Building level 7
[2] Building level 6
Creating AMGLevel 
[1] Building level 2
[0] Building level 2
Reconstruction on level 2
[3] Building level 8
[3] Building level 9
[3] Building level 10
[3] Building level 11
[3] Building level 12
[3] Building level 13
[3] Building level 14
[2] Building level 7
[2] Building level 8
[2] Building level 9
[4] Building level 3
[5] Building level 3
[2] Building level 10
[2] Building level 11
[2] Building level 12
[2] Building level 13
[2] Building level 14
Creating AMGLevel 
[0] Building level 3
Reconstruction on level 3
[1] Building level 3
[4] Building level 4
[5] Building level 4
[4] Building level 5
[5] Building level 5
Creating AMGLevel 
[0] Building level 4
Reconstruction on level 4
[1] Building level 4
[5] Building level 6
[4] Building level 6
[4] Building level 7
[5] Building level 7
[4] Building level 8
[5] Building level 8
Creating AMGLevel 
[0] Building level 5
Reconstruction on level 5
[1] Building level 5
[5] Building level 9
[4] Building level 9
[4] Building level 10
[5] Building level 10
[4] Building level 11
[5] Building level 11
[4] Building level 12
[5] Building level 12
[4] Building level 13
[5] Building level 13
[4] Building level 14
[5] Building level 14
Creating AMGLevel 
[0] Building level 6
Reconstruction on level 6
[1] Building level 6
Creating AMGLevel 
[0] Building level 7
Reconstruction on level 7
[1] Building level 7
Creating AMGLevel 
[0] Building level 8
Reconstruction on level 8
[1] Building level 8
Creating AMGLevel 
[0] Building level 9
Reconstruction on level 9
[1] Building level 9
[1] Building level 10
Creating AMGLevel 
[0] Building level 10
Reconstruction on level 10
[1] Building level 11
Creating AMGLevel 
[0] Building level 11
Reconstruction on level 11
[1] Building level 12
Creating AMGLevel 
[0] Building level 12
Reconstruction on level 12
[1] Building level 13
Creating AMGLevel 
[0] Building level 13
Reconstruction on level 13
[1] Building level 14
Creating AMGLevel 
[0] Building level 14
Reconstruction on level 14
Creating AMGLevel 
14 Level construction complete
initial dot_x = 2.60216e+09
Iter #1 residual = 0.0203575
Iter #2 residual = 0.0131953
Iter #3 residual = 0.0088315
Iter #4 residual = 0.0108908
Iter #5 residual = 0.00784244
Iter #6 residual = 0.0384592
Iter #7 residual = 0.022573
Iter #8 residual = 0.0113699
Iter #9 residual = 0.00736213
Iter #10 residual = 0.00434356
Iter #11 residual = 0.0107303
Iter #12 residual = 0.00622102
Iter #13 residual = 0.0100374
Iter #14 residual = 0.00806758
Iter #15 residual = 0.00334327
Iter #16 residual = 0.00279696
Iter #17 residual = 0.00302622
Iter #18 residual = 0.00246038
Iter #19 residual = 0.00306693
Iter #20 residual = 0.00257305
Iter #21 residual = 0.00303421
Iter #22 residual = 0.00254186
Iter #23 residual = 0.00360351
Iter #24 residual = 0.00267161
Iter #25 residual = 0.0069987
Iter #26 residual = 0.00429898
Iter #27 residual = 0.0047458
Iter #28 residual = 0.00647606
Iter #29 residual = 0.00305725
Iter #30 residual = 0.00390167
Iter #31 residual = 0.00390152
Iter #32 residual = 0.00215155
Iter #33 residual = 0.00863557
Iter #34 residual = 0.00543164
Iter #35 residual = 0.00460756
Iter #36 residual = 0.00301611
Iter #37 residual = 0.00244005
Iter #38 residual = 0.0017607
Iter #39 residual = 0.00294701
Iter #40 residual = 0.00189491
Iter #41 residual = 0.0104016
Iter #42 residual = 0.00561808
Iter #43 residual = 0.00406303
Iter #44 residual = 0.00224105
Iter #45 residual = 0.004299
Iter #46 residual = 0.00270911
Iter #47 residual = 0.00365335
Iter #48 residual = 0.00264228
Iter #49 residual = 0.00161392
Iter #50 residual = 0.00110306
GPU: 50 iters: 9.31033 s: 2.34238 GB/s
GPUAMG:  Solving for pd, Initial residual = 0.0157716, Final residual = 0.00204465, No Iterations 50
[0] Building level 0
[1] Building level 0
[2] Building level 0
[5] Building level 0
[4] Building level 0
[3] Building level 0
[5] Building level 1
[0] Building level 1
[1] Building level 1
[4] Building level 1
[3] Building level 1
[2] Building level 1
[5] Building level 2
[4] Building level 2
[3] Building level 2
[0] Building level 2
[1] Building level 2
[2] Building level 2
[3] Building level 3
[4] Building level 3
[5] Building level 3
[0] Building level 3
[1] Building level 3
[2] Building level 3
[3] Building level 4
[1] Building level 4
[4] Building level 4
[0] Building level 4
[5] Building level 4
[2] Building level 4
[3] Building level 5
[4] Building level 5
[1] Building level 5
[0] Building level 5
[5] Building level 5
[2] Building level 5
[3] Building level 6
[3] Building level 7
[4] Building level 6
[1] Building level 6
[0] Building level 6
[3] Building level 8
[5] Building level 6
[3] Building level 9
[2] Building level 6
[3] Building level 10
[3] Building level 11
[3] Building level 12
[3] Building level 13
[3] Building level 14
[4] Building level 7
[1] Building level 7
[0] Building level 7
[5] Building level 7
[2] Building level 7
[4] Building level 8
[1] Building level 8
[0] Building level 8
[5] Building level 8
[4] Building level 9
[1] Building level 9
[4] Building level 10
[0] Building level 9
[5] Building level 9
[2] Building level 8
[1] Building level 10
[4] Building level 11
[4] Building level 12
[4] Building level 13
[0] Building level 10
[5] Building level 10
[4] Building level 14
[1] Building level 11
[1] Building level 12
[0] Building level 11
[1] Building level 13
[5] Building level 11
[1] Building level 14
[5] Building level 12
[0] Building level 12
[5] Building level 13
[0] Building level 13
[5] Building level 14
[0] Building level 14
[2] Building level 9
14 Level construction complete
[2] Building level 10
[2] Building level 11
[2] Building level 12
[2] Building level 13
[2] Building level 14
initial dot_x = 8.01936e+08
Iter #1 residual = 0.00395059
Iter #2 residual = 0.00254248
Iter #3 residual = 0.00145592
Iter #4 residual = 0.00104476
Iter #5 residual = 0.00066799
Iter #6 residual = 0.000497685
Iter #7 residual = 0.000403183
GPU: 7 iters: 1.43159 s: 2.13271 GB/s
GPUAMG:  Solving for pd, Initial residual = 0.00793611, Final residual = 0.000248525, No Iterations 7
[2] Building level 0
[0] Building level 0
[1] Building level 0
[3] Building level 0
[4] Building level 0
[5] Building level 0
[5] Building level 1
[1] Building level 1
[0] Building level 1
[4] Building level 1
[3] Building level 1
[2] Building level 1
[5] Building level 2
[3] Building level 2
[4] Building level 2
[2] Building level 2
[1] Building level 2
[0] Building level 2
[3] Building level 3
[4] Building level 3
[5] Building level 3
[2] Building level 3
[0] Building level 3
[1] Building level 3
[3] Building level 4
[2] Building level 4
[1] Building level 4
[0] Building level 4
[4] Building level 4
[5] Building level 4
[3] Building level 5
[2] Building level 5
[1] Building level 5
[0] Building level 5
[4] Building level 5
[5] Building level 5
[3] Building level 6
[2] Building level 6
[3] Building level 7
[1] Building level 6
[0] Building level 6
[4] Building level 6
[3] Building level 8
[5] Building level 6
[3] Building level 9
[2] Building level 7
[3] Building level 10
[3] Building level 11
[3] Building level 12
[3] Building level 13
[3] Building level 14
[1] Building level 7
[0] Building level 7
[2] Building level 8
[4] Building level 7
[5] Building level 7
[2] Building level 9
[2] Building level 10
[2] Building level 11
[1] Building level 8
[2] Building level 12
[0] Building level 8
[2] Building level 13
[2] Building level 14
[4] Building level 8
[5] Building level 8
[1] Building level 9
[0] Building level 9
[4] Building level 9
[5] Building level 9
[1] Building level 10
[0] Building level 10
[1] Building level 11
[0] Building level 11
[4] Building level 10
[5] Building level 10
[1] Building level 12
[0] Building level 12
[1] Building level 13
[0] Building level 13
[1] Building level 14
[0] Building level 14
[4] Building level 11
14 Level construction complete
[5] Building level 11
[4] Building level 12
[5] Building level 12
[4] Building level 13
[4] Building level 14
[5] Building level 13
[5] Building level 14
initial dot_x = 8.04192e+08
Iter #1 residual = 0.00470892
Iter #2 residual = 0.00426792
Iter #3 residual = 0.00166228
Iter #4 residual = 0.00215226
Iter #5 residual = 0.00151158
Iter #6 residual = 0.00779736
Iter #7 residual = 0.00439063
Iter #8 residual = 0.00201964
Iter #9 residual = 0.00231229
Iter #10 residual = 0.00249218
Iter #11 residual = 0.000943451
Iter #12 residual = 0.00218598
Iter #13 residual = 0.00207797
Iter #14 residual = 0.000878168
Iter #15 residual = 0.000603675
Iter #16 residual = 0.000522693
Iter #17 residual = 0.000660863
Iter #18 residual = 0.000432387
Iter #19 residual = 0.000373647
Iter #20 residual = 0.000473113
Iter #21 residual = 0.000870945
Iter #22 residual = 0.00115246
Iter #23 residual = 0.00059603
Iter #24 residual = 0.000479708
Iter #25 residual = 0.000564981
Iter #26 residual = 0.000447045
Iter #27 residual = 0.00042453
Iter #28 residual = 0.000403312
Iter #29 residual = 0.000400475
Iter #30 residual = 0.000414892
Iter #31 residual = 0.000604113
Iter #32 residual = 0.000444818
Iter #33 residual = 0.000561499
Iter #34 residual = 0.000436223
Iter #35 residual = 0.000569471
Iter #36 residual = 0.000436121
GMRES:  Solving for topLevelCorr, Initial residual = 0.831315, Final residual = 0.844552, No Iterations 200
Iter #37 residual = 0.000143848
GMRES:  Solving for topLevelCorr, Initial residual = 0.945375, Final residual = 1.3286, No Iterations 200
Iter #38 residual = 0.000822867
Iter #39 residual = 0.00298839
Iter #40 residual = 0.00189414
Iter #41 residual = 0.00139343
Iter #42 residual = 0.000741327
Iter #43 residual = 0.00323449
Iter #44 residual = 0.00217313
Iter #45 residual = 0.00116339
Iter #46 residual = 0.00143052
Iter #47 residual = 0.000812578
Iter #48 residual = 0.00188007
Iter #49 residual = 0.00113653
Iter #50 residual = 0.000315152
GPU: 50 iters: 9.12438 s: 2.39012 GB/s
GPUAMG:  Solving for pd, Initial residual = 0.00698971, Final residual = 0.000677953, No Iterations 50
time step continuity errors : sum local = 3.25985e-08, global = 1.22252e-11, cumulative = -7.65355e-08
ExecutionTime = 330.48 s  ClockTime = 352 s

Courant Number mean: 2.9388e-05 max: 0.0215823 velocity magnitude: 0.168665
Time = 0.007

MULES: Solving for alpha1
Liquid phase volume fraction = 0.00275429  Min(alpha1) = -1.14321e-29  Max(alpha1) = 1
MULES: Solving for alpha1
Liquid phase volume fraction = 0.00275429  Min(alpha1) = -1.94752e-30  Max(alpha1) = 1
[2] Building level 0
[1] Building level 0
[0] Building level 0
[4] Building level 0
[5] Building level 0
[3] Building level 0
[5] Building level 1
[4] Building level 1
[3] Building level 1
[1] Building level 1
[0] Building level 1
Reconstruction on level 1
[2] Building level 1
[3] Building level 2
[3] Building level 3
[2] Building level 2
[2] Building level 3
[3] Building level 4
[2] Building level 4
[3] Building level 5
[2] Building level 5
[4] Building level 2
[5] Building level 2
[3] Building level 6
Creating AMGLevel 
[1] Building level 2
[0] Building level 2
Reconstruction on level 2
[3] Building level 7
[2] Building level 6
[3] Building level 8
[3] Building level 9
[2] Building level 7
[3] Building level 10
[3] Building level 11
[3] Building level 12
[3] Building level 13
[3] Building level 14
[2] Building level 8
[2] Building level 9
[2] Building level 10
[2] Building level 11
[2] Building level 12
[2] Building level 13
[2] Building level 14
[4] Building level 3
[5] Building level 3
[1] Building level 3
Creating AMGLevel 
[0] Building level 3
Reconstruction on level 3
[4] Building level 4
[5] Building level 4
[1] Building level 4
Creating AMGLevel 
[0] Building level 4
Reconstruction on level 4
[4] Building level 5
[5] Building level 5
[1] Building level 5
Creating AMGLevel 
[0] Building level 5
Reconstruction on level 5
[4] Building level 6
[5] Building level 6
[1] Building level 6
[4] Building level 7
[5] Building level 7
Creating AMGLevel 
[0] Building level 6
Reconstruction on level 6
[4] Building level 8
[5] Building level 8
[4] Building level 9
[5] Building level 9
[1] Building level 7
Creating AMGLevel 
[0] Building level 7
Reconstruction on level 7
[4] Building level 10
[5] Building level 10
[4] Building level 11
[5] Building level 11
[4] Building level 12
[5] Building level 12
[4] Building level 13
[5] Building level 13
[4] Building level 14
[5] Building level 14
[1] Building level 8
Creating AMGLevel 
[0] Building level 8
Reconstruction on level 8
[1] Building level 9
Creating AMGLevel 
[0] Building level 9
Reconstruction on level 9
[1] Building level 10
[1] Building level 11
Creating AMGLevel 
[0] Building level 10
Reconstruction on level 10
[1] Building level 12
[1] Building level 13
Creating AMGLevel 
[0] Building level 11
Reconstruction on level 11
[1] Building level 14
Creating AMGLevel 
[0] Building level 12
Reconstruction on level 12
Creating AMGLevel 
[0] Building level 13
Reconstruction on level 13
Creating AMGLevel 
[0] Building level 14
Reconstruction on level 14
Creating AMGLevel 
14 Level construction complete
initial dot_x = 1.87353e+09
Iter #1 residual = 0.0257925
Iter #2 residual = 0.0112681
Iter #3 residual = 0.0331566
Iter #4 residual = 0.0165258
Iter #5 residual = 0.029477
Iter #6 residual = 0.0183692
Iter #7 residual = 0.00934499
Iter #8 residual = 0.00829646
Iter #9 residual = 0.00632812
Iter #10 residual = 0.00840878
Iter #11 residual = 0.0060453
Iter #12 residual = 0.0100796
Iter #13 residual = 0.0125897
Iter #14 residual = 0.00664795
Iter #15 residual = 0.00964643
Iter #16 residual = 0.0133464
Iter #17 residual = 0.00656894
Iter #18 residual = 0.0223109
Iter #19 residual = 0.0109851
Iter #20 residual = 0.00578426
Iter #21 residual = 0.00408939
Iter #22 residual = 0.00414165
Iter #23 residual = 0.00309405
Iter #24 residual = 0.00598026
Iter #25 residual = 0.00418234
Iter #26 residual = 0.00852017
Iter #27 residual = 0.00630149
Iter #28 residual = 0.00284794
Iter #29 residual = 0.00191144
Iter #30 residual = 0.0038035
Iter #31 residual = 0.00246562
Iter #32 residual = 0.00915972
Iter #33 residual = 0.00498853
Iter #34 residual = 0.0045514
Iter #35 residual = 0.0028907
Iter #36 residual = 0.00342805
Iter #37 residual = 0.00237786
Iter #38 residual = 0.00318606
Iter #39 residual = 0.00353038
Iter #40 residual = 0.00170041
Iter #41 residual = 0.007565
Iter #42 residual = 0.00354581
Iter #43 residual = 0.00259165
Iter #44 residual = 0.00195851
Iter #45 residual = 0.00126418
Iter #46 residual = 0.00130046
Iter #47 residual = 0.00230666
Iter #48 residual = 0.00248461
Iter #49 residual = 0.00117541
Iter #50 residual = 0.00134739
GPU: 50 iters: 8.90952 s: 2.44775 GB/s
GPUAMG:  Solving for pd, Initial residual = 0.0162347, Final residual = 0.000977427, No Iterations 50
[0] Building level 0
[2] Building level 0
[1] Building level 0
[3] Building level 0
[5] Building level 0
[4] Building level 0
[5] Building level 1
[1] Building level 1
[0] Building level 1
[4] Building level 1
[3] Building level 1
[2] Building level 1
[5] Building level 2
[0] Building level 2
[3] Building level 2
[4] Building level 2
[1] Building level 2
[2] Building level 2
[3] Building level 3
[4] Building level 3
[5] Building level 3
[1] Building level 3
[0] Building level 3
[2] Building level 3
[3] Building level 4
[1] Building level 4
[0] Building level 4
[4] Building level 4
[5] Building level 4
[2] Building level 4
[3] Building level 5
[4] Building level 5
[1] Building level 5
[0] Building level 5
[5] Building level 5
[3] Building level 6
[2] Building level 5
[3] Building level 7
[3] Building level 8
[4] Building level 6
[0] Building level 6
[1] Building level 6
[3] Building level 9
[5] Building level 6
[3] Building level 10
[3] Building level 11
[3] Building level 12
[3] Building level 13
[3] Building level 14
[2] Building level 6
[4] Building level 7
[0] Building level 7
[1] Building level 7
[5] Building level 7
[4] Building level 8
[0] Building level 8
[1] Building level 8
[5] Building level 8
[4] Building level 9
[0] Building level 9
[2] Building level 7
[4] Building level 10
[1] Building level 9
[5] Building level 9
[4] Building level 11
[0] Building level 10
[4] Building level 12
[4] Building level 13
[1] Building level 10
[4] Building level 14
[5] Building level 10
[0] Building level 11
[0] Building level 12
[1] Building level 11
[0] Building level 13
[5] Building level 11
[0] Building level 14
[1] Building level 12
14 Level construction complete
[5] Building level 12
[1] Building level 13
[5] Building level 13
[1] Building level 14
[5] Building level 14
[2] Building level 8
[2] Building level 9
[2] Building level 10
[2] Building level 11
[2] Building level 12
[2] Building level 13
[2] Building level 14
initial dot_x = 7.31824e+08
Iter #1 residual = 0.00451251
Iter #2 residual = 0.00320639
Iter #3 residual = 0.00383508
Iter #4 residual = 0.00230801
Iter #5 residual = 0.00249627
Iter #6 residual = 0.00344323
Iter #7 residual = 0.00193985
Iter #8 residual = 0.00207881
Iter #9 residual = 0.00123396
Iter #10 residual = 0.00406305
Iter #11 residual = 0.00194981
Iter #12 residual = 0.00113528
Iter #13 residual = 0.00111481
Iter #14 residual = 0.000659467
Iter #15 residual = 0.00210832
Iter #16 residual = 0.00119367
Iter #17 residual = 0.0014147
Iter #18 residual = 0.000969896
Iter #19 residual = 0.00166333
Iter #20 residual = 0.000881222
Iter #21 residual = 0.00119653
Iter #22 residual = 0.00109474
Iter #23 residual = 0.000747575
Iter #24 residual = 0.000442306
Iter #25 residual = 0.00120787
Iter #26 residual = 0.000828947
Iter #27 residual = 0.00103984
Iter #28 residual = 0.000500903
Iter #29 residual = 0.000733351
Iter #30 residual = 0.000461803
Iter #31 residual = 0.000827939
Iter #32 residual = 0.000482926
GPU: 32 iters: 5.7695 s: 2.41916 GB/s
GPUAMG:  Solving for pd, Initial residual = 0.00708014, Final residual = 0.000314388, No Iterations 32
[2] Building level 0
[1] Building level 0
[0] Building level 0
[4] Building level 0
[5] Building level 0
[3] Building level 0
[5] Building level 1
[0] Building level 1
[1] Building level 1
[4] Building level 1
[3] Building level 1
[2] Building level 1
[4] Building level 2
[5] Building level 2
[0] Building level 2
[1] Building level 2
[3] Building level 2
[2] Building level 2
[3] Building level 3
[4] Building level 3
[1] Building level 3
[5] Building level 3
[0] Building level 3
[2] Building level 3
[3] Building level 4
[0] Building level 4
[1] Building level 4
[4] Building level 4
[2] Building level 4
[5] Building level 4
[3] Building level 5
[4] Building level 5
[0] Building level 5
[1] Building level 5
[2] Building level 5
[5] Building level 5
[3] Building level 6
[3] Building level 7
[4] Building level 6
[3] Building level 8
[0] Building level 6
[1] Building level 6
[2] Building level 6
[5] Building level 6
[3] Building level 9
[3] Building level 10
[3] Building level 11
[3] Building level 12
[3] Building level 13
[3] Building level 14
[4] Building level 7
[0] Building level 7
[1] Building level 7
[5] Building level 7
[2] Building level 7
[4] Building level 8
[0] Building level 8
[1] Building level 8
[4] Building level 9
[5] Building level 8
[2] Building level 8
[4] Building level 10
[0] Building level 9
[4] Building level 11
[4] Building level 12
[1] Building level 9
[5] Building level 9
[4] Building level 13
[4] Building level 14
[0] Building level 10
[2] Building level 9
[1] Building level 10
[0] Building level 11
[5] Building level 10
[0] Building level 12
[1] Building level 11
[0] Building level 13
[5] Building level 11
[0] Building level 14
14 Level construction complete
[2] Building level 10
[1] Building level 12
[5] Building level 12
[1] Building level 13
[5] Building level 13
[1] Building level 14
[5] Building level 14
[2] Building level 11
[2] Building level 12
[2] Building level 13
[2] Building level 14
initial dot_x = 1.44745e+09
Iter #1 residual = 0.00083927
Iter #2 residual = 0.000997574
Iter #3 residual = 0.000612281
Iter #4 residual = 0.000450795
Iter #5 residual = 0.000632715
Iter #6 residual = 0.000344772
Iter #7 residual = 0.000792242
Iter #8 residual = 0.000551734
Iter #9 residual = 0.000393216
Iter #10 residual = 0.000298477
Iter #11 residual = 0.000312941
Iter #12 residual = 0.000205849
Iter #13 residual = 0.000403038
Iter #14 residual = 0.000263321
Iter #15 residual = 0.000938313
Iter #16 residual = 0.000476871
Iter #17 residual = 0.000320493
Iter #18 residual = 0.000179461
Iter #19 residual = 0.000363367
Iter #20 residual = 0.000219165
Iter #21 residual = 0.000785465
Iter #22 residual = 0.00041771
Iter #23 residual = 0.00024471
Iter #24 residual = 0.000398386
Iter #25 residual = 0.000265252
Iter #26 residual = 0.000132622
Iter #27 residual = 0.000133433
Iter #28 residual = 0.00028614
Iter #29 residual = 0.000174325
Iter #30 residual = 0.000283217
Iter #31 residual = 0.000198533
Iter #32 residual = 0.000196411
Iter #33 residual = 9.73937e-05
Iter #34 residual = 0.000223546
Iter #35 residual = 0.000142346
Iter #36 residual = 7.033e-05
Iter #37 residual = 0.000189526
Iter #38 residual = 0.000115562
Iter #39 residual = 0.000116025
Iter #40 residual = 0.000135444
Iter #41 residual = 0.000143773
Iter #42 residual = 8.21377e-05
Iter #43 residual = 8.64103e-05
Iter #44 residual = 0.000109563
Iter #45 residual = 6.18967e-05
Iter #46 residual = 8.72425e-05
Iter #47 residual = 6.64915e-05
Iter #48 residual = 8.222e-05
Iter #49 residual = 5.39662e-05
Iter #50 residual = 6.50558e-05
GPU: 50 iters: 9.93371 s: 2.19538 GB/s
GPUAMG:  Solving for pd, Initial residual = 0.00639092, Final residual = 2.99166e-05, No Iterations 50
time step continuity errors : sum local = 1.64116e-09, global = 1.42127e-10, cumulative = -7.63934e-08
ExecutionTime = 388.46 s  ClockTime = 412 s

Courant Number mean: 3.4409e-05 max: 0.00834908 velocity magnitude: 0.130454
Time = 0.008

MULES: Solving for alpha1
Liquid phase volume fraction = 0.00275429  Min(alpha1) = -2.38374e-30  Max(alpha1) = 1
MULES: Solving for alpha1
Liquid phase volume fraction = 0.00275429  Min(alpha1) = -3.30779e-30  Max(alpha1) = 1
[1] Building level 0
[0] Building level 0
[2] Building level 0
[3] Building level 0
[4] Building level 0
[5] Building level 0
[1] Building level 1
[0] Building level 1
Reconstruction on level 1
[5] Building level 1
[4] Building level 1
[3] Building level 1
[2] Building level 1
[1] Building level 2
[2] Building level 2
[3] Building level 2
[2] Building level 3
[3] Building level 3
[2] Building level 4
[...]
[5] Building level 12
[5] Building level 13
[5] Building level 14
initial dot_x = 9.22157e+08
Iter #1 residual = 0.0218468
Iter #2 residual = 0.0116206
Iter #3 residual = 0.0254426
Iter #4 residual = 0.0161452
Iter #5 residual = 0.0151614
Iter #6 residual = 0.00855587
Iter #7 residual = 0.00387805
Iter #8 residual = 0.00293683
Iter #9 residual = 0.00387488
Iter #10 residual = 0.00296639
Iter #11 residual = 0.0018576
Iter #12 residual = 0.00129903
Iter #13 residual = 0.00215498
Iter #14 residual = 0.00137834
Iter #15 residual = 0.00200393
Iter #16 residual = 0.000998742
Iter #17 residual = 0.00232911
Iter #18 residual = 0.00287367
Iter #19 residual = 0.0021492
Iter #20 residual = 0.000898542
GPU: 20 iters: 3.6246 s: 2.4067 GB/s
GPUAMG:  Solving for pd, Initial residual = 0.0164872, Final residual = 0.000364074, No Iterations 20
[1] Building level 0
[0] Building level 0
[2] Building level 0
[3] Building level 0
[5] Building level 0
[4] Building level 0
[1] Building level 1
[0] Building level 1
[5] Building level 1
[4] Building level 1
[3] Building level 1
[2] Building level 1
[1] Building level 2
[3] Building level 2
[4] Building level 2
[2] Building level 2
[5] Building level 2
[0] Building level 2
[1] Building level 3
[3] Building level 3
[4] Building level 3
[2] Building level 3
[5] Building level 3
[0] Building level 3
[3] Building level 4
[2] Building level 4
[0] Building level 4
[1] Building level 4
[4] Building level 4
[5] Building level 4
[2] Building level 5
[3] Building level 5
[1] Building level 5
[0] Building level 5
[4] Building level 5
[5] Building level 5
[2] Building level 6
[3] Building level 6
[4] Building level 6
[2] Building level 7
[0] Building level 6
[1] Building level 6
[5] Building level 6
[3] Building level 7
[2] Building level 8
[3] Building level 8
[2] Building level 9
[3] Building level 9
[2] Building level 10
[4] Building level 7
[0] Building level 7
[2] Building level 11
[3] Building level 10
[2] Building level 12
[5] Building level 7
[1] Building level 7
[2] Building level 13
[2] Building level 14
[3] Building level 11
[3] Building level 12
[3] Building level 13
[3] Building level 14
[4] Building level 8
[0] Building level 8
[5] Building level 8
[1] Building level 8
[4] Building level 9
[4] Building level 10
[0] Building level 9
[5] Building level 9
[1] Building level 9
[4] Building level 11
[4] Building level 12
[4] Building level 13
[4] Building level 14
[5] Building level 10
[0] Building level 10
[1] Building level 10
[0] Building level 11
[5] Building level 11
[1] Building level 11
[5] Building level 12
[0] Building level 12
[5] Building level 13
[1] Building level 12
[5] Building level 14
[0] Building level 13
[1] Building level 13
[0] Building level 14
[1] Building level 14
14 Level construction complete
initial dot_x = 6.30542e+08
Iter #1 residual = 0.00174228
Iter #2 residual = 0.000995585
Iter #3 residual = 0.00113385
Iter #4 residual = 0.000611009
Iter #5 residual = 0.000402208
Iter #6 residual = 0.000692286
Iter #7 residual = 0.000399686
Iter #8 residual = 0.000632033
Iter #9 residual = 0.000602488
GPU: 9 iters: 1.72754 s: 2.2723 GB/s
GPUAMG:  Solving for pd, Initial residual = 0.00644622, Final residual = 0.00021997, No Iterations 9
[2] Building level 0
[1] Building level 0
[0] Building level 0
[3] Building level 0
[4] Building level 0
[5] Building level 0
[1] Building level 1
[0] Building level 1
[5] Building level 1
[4] Building level 1
[3] Building level 1
[2] Building level 1
[1] Building level 2
[4] Building level 2
[3] Building level 2
[5] Building level 2
[0] Building level 2
[2] Building level 2
[1] Building level 3
[3] Building level 3
[4] Building level 3
[5] Building level 3
[2] Building level 3
[0] Building level 3
[3] Building level 4
[2] Building level 4
[0] Building level 4
[1] Building level 4
[4] Building level 4
[5] Building level 4
[3] Building level 5
[2] Building level 5
[1] Building level 5
[0] Building level 5
[4] Building level 5
[5] Building level 5
[3] Building level 6
[2] Building level 6
[5] Building level 6
[4] Building level 6
[1] Building level 6
[0] Building level 6
[3] Building level 7
[2] Building level 7
[3] Building level 8
[2] Building level 8
[4] Building level 7
[5] Building level 7
[3] Building level 9
[0] Building level 7
[1] Building level 7
[3] Building level 10
[2] Building level 9
[3] Building level 11
[3] Building level 12
[3] Building level 13
[3] Building level 14
[2] Building level 10
[2] Building level 11
[2] Building level 12
[2] Building level 13
[4] Building level 8
[2] Building level 14
[5] Building level 8
[0] Building level 8
[1] Building level 8
[4] Building level 9
[5] Building level 9
[4] Building level 10
[5] Building level 10
[1] Building level 9
[0] Building level 9
[4] Building level 11
[5] Building level 11
[4] Building level 12
[4] Building level 13
[5] Building level 12
[4] Building level 14
[5] Building level 13
[1] Building level 10
[5] Building level 14
[0] Building level 10
[1] Building level 11
[0] Building level 11
[1] Building level 12
[0] Building level 12
[1] Building level 13
[1] Building level 14
[0] Building level 13
[0] Building level 14
14 Level construction complete
initial dot_x = 6.66659e+08
Iter #1 residual = 0.000495571
Iter #2 residual = 0.000429149
Iter #3 residual = 0.000369002
Iter #4 residual = 0.000236843
Iter #5 residual = 0.000605254
Iter #6 residual = 0.000394443
Iter #7 residual = 0.000498236
Iter #8 residual = 0.000456159
Iter #9 residual = 0.000270455
Iter #10 residual = 0.000217365
Iter #11 residual = 0.00012218
Iter #12 residual = 0.000106452
Iter #13 residual = 0.000169311
Iter #14 residual = 0.000102167
Iter #15 residual = 0.000406178
Iter #16 residual = 0.000251582
Iter #17 residual = 0.000773462
Iter #18 residual = 0.000631123
Iter #19 residual = 0.000191286
Iter #20 residual = 0.000101961
Iter #21 residual = 0.000117773
Iter #22 residual = 8.4555e-05
Iter #23 residual = 0.000180472
Iter #24 residual = 0.000112807
Iter #25 residual = 0.000277894
Iter #26 residual = 0.000234061
Iter #27 residual = 0.000139964
Iter #28 residual = 7.6808e-05
Iter #29 residual = 3.97938e-05
Iter #30 residual = 2.71998e-05
Iter #31 residual = 1.91526e-05
Iter #32 residual = 1.83918e-05
Iter #33 residual = 1.64013e-05
Iter #34 residual = 1.36677e-05
Iter #35 residual = 1.05595e-05
Iter #36 residual = 1.00889e-05
Iter #37 residual = 7.44782e-06
Iter #38 residual = 8.06992e-06
Iter #39 residual = 1.18205e-05
Iter #40 residual = 6.90476e-06
Iter #41 residual = 2.95377e-05
Iter #42 residual = 1.78824e-05
Iter #43 residual = 4.83017e-05
Iter #44 residual = 3.94827e-05
Iter #45 residual = 1.13031e-05
Iter #46 residual = 1.69732e-05
Iter #47 residual = 9.35045e-06
Iter #48 residual = 1.76345e-05
Iter #49 residual = 1.2357e-05
Iter #50 residual = 3.69346e-06
GPU: 50 iters: 8.78884 s: 2.48136 GB/s
GPUAMG:  Solving for pd, Initial residual = 0.00625484, Final residual = 4.03289e-06, No Iterations 50
time step continuity errors : sum local = 2.00033e-10, global = 2.60704e-12, cumulative = -7.62343e-08
ExecutionTime = 479.92 s  ClockTime = 506 s

Courant Number mean: 4.46247e-05 max: 0.00971294 velocity magnitude: 0.149363
Time = 0.01

MULES: Solving for alpha1
Liquid phase volume fraction = 0.00275429  Min(alpha1) = -1.76718e-29  Max(alpha1) = 1
MULES: Solving for alpha1
Liquid phase volume fraction = 0.00275429  Min(alpha1) = -3.00248e-29  Max(alpha1) = 1
[2] Building level 0
[1] Building level 0
[0] Building level 0
[5] Building level 0
[3] Building level 0
[4] Building level 0
[0] Building level 1
[1] Building level 1
[5] Building level 1
[2] Building level 1
[3] Building level 1
[4] Building level 1
[0] Building level 2
Reconstruction on level 2
[4] Building level 2
[3] Building level 2
[2] Building level 2
[3] Building level 3
[2] Building level 3
[3] Building level 4
[2] Building level 4
Creating AMGLevel 
[0] Building level 3
Reconstruction on level 3
[4] Building level 3
[3] Building level 5
[2] Building level 5
[1] Building level 2
[5] Building level 2
[3] Building level 6
[2] Building level 6
Creating AMGLevel 
[0] Building level 4
Reconstruction on level 4
[4] Building level 4
[3] Building level 7
[2] Building level 7
[3] Building level 8
[2] Building level 8
[3] Building level 9
[2] Building level 9
[3] Building level 10
[2] Building level 10
[3] Building level 11
[2] Building level 11
[3] Building level 12
[3] Building level 13
[2] Building level 12
[3] Building level 14
[2] Building level 13
[2] Building level 14
Creating AMGLevel 
[0] Building level 5
Reconstruction on level 5
[4] Building level 5
[1] Building level 3
[5] Building level 3
Creating AMGLevel 
[4] Building level 6
[0] Building level 6
Reconstruction on level 6
Creating AMGLevel 
[0] Building level 7
Reconstruction on level 7
[4] Building level 7
Creating AMGLevel 
[0] Building level 8
Reconstruction on level 8
[4] Building level 8
Creating AMGLevel 
[0] Building level 9
Reconstruction on level 9
[4] Building level 9
[4] Building level 10
Creating AMGLevel 
[0] Building level 10
Reconstruction on level 10
[4] Building level 11
Creating AMGLevel 
[0] Building level 11
Reconstruction on level 11
[4] Building level 12
Creating AMGLevel 
[0] Building level 12
Reconstruction on level 12
[4] Building level 13
Creating AMGLevel 
[0] Building level 13
Reconstruction on level 13
[4] Building level 14
Creating AMGLevel 
[0] Building level 14
Reconstruction on level 14
Creating AMGLevel 
14 Level construction complete
[1] Building level 4
[5] Building level 4
[1] Building level 5
[5] Building level 5
[1] Building level 6
[5] Building level 6
[1] Building level 7
[5] Building level 7
[1] Building level 8
[5] Building level 8
[1] Building level 9
[5] Building level 9
[1] Building level 10
[5] Building level 10
[1] Building level 11
[1] Building level 12
[5] Building level 11
[1] Building level 13
[5] Building level 12
[1] Building level 14
[5] Building level 13
[5] Building level 14
initial dot_x = 7.7945e+08
Iter #1 residual = 0.0241142
Iter #2 residual = 0.0130263
Iter #3 residual = 0.00723235
Iter #4 residual = 0.0071415
Iter #5 residual = 0.00616473
Iter #6 residual = 0.00517732
Iter #7 residual = 0.00461838
Iter #8 residual = 0.00651648
Iter #9 residual = 0.00438843
Iter #10 residual = 0.00352532
Iter #11 residual = 0.00366062
Iter #12 residual = 0.00299849
Iter #13 residual = 0.00358164
Iter #14 residual = 0.00284983
Iter #15 residual = 0.00359042
Iter #16 residual = 0.00275026
Iter #17 residual = 0.00455608
Iter #18 residual = 0.00302806
GMRES:  Solving for topLevelCorr, Initial residual = 0.856849, Final residual = 0.976963, No Iterations 200
Iter #19 residual = 0.00108284
GMRES:  Solving for topLevelCorr, Initial residual = 0.930623, Final residual = 1.21404, No Iterations 200
Iter #20 residual = 0.00198869
Iter #21 residual = 0.0032958
Iter #22 residual = 0.00267375
Iter #23 residual = 0.00336723
Iter #24 residual = 0.00299328
Iter #25 residual = 0.00309882
Iter #26 residual = 0.00284323
Iter #27 residual = 0.0030896
Iter #28 residual = 0.00279839
Iter #29 residual = 0.00318177
Iter #30 residual = 0.002876
Iter #31 residual = 0.0031357
Iter #32 residual = 0.0028594
Iter #33 residual = 0.0030464
Iter #34 residual = 0.00269976
Iter #35 residual = 0.00317166
Iter #36 residual = 0.00278784
Iter #37 residual = 0.00314278
Iter #38 residual = 0.00279257
Iter #39 residual = 0.00315697
Iter #40 residual = 0.00274817
Iter #41 residual = 0.00332964
Iter #42 residual = 0.00259623
Iter #43 residual = 0.00377184
Iter #44 residual = 0.00267621
GMRES:  Solving for topLevelCorr, Initial residual = 0.836408, Final residual = 0.863812, No Iterations 200
Iter #45 residual = 0.00101019
GMRES:  Solving for topLevelCorr, Initial residual = 0.931864, Final residual = 1.24605, No Iterations 200
Iter #46 residual = 0.00213468
Iter #47 residual = 0.00280724
Iter #48 residual = 0.00279573
Iter #49 residual = 0.00340956
Iter #50 residual = 0.00571504
GPU: 50 iters: 8.49187 s: 2.56814 GB/s
GPUAMG:  Solving for pd, Initial residual = 0.0171491, Final residual = 0.00429628, No Iterations 50
[1] Building level 0
[0] Building level 0
[2] Building level 0
[3] Building level 0
[4] Building level 0
[5] Building level 0
[1] Building level 1
[0] Building level 1
[5] Building level 1
[2] Building level 1
[4] Building level 1
[3] Building level 1
[2] Building level 2
[1] Building level 2
[5] Building level 2
[0] Building level 2
[3] Building level 2
[4] Building level 2
[2] Building level 3
[1] Building level 3
[5] Building level 3
[4] Building level 3
[3] Building level 3
[0] Building level 3
[2] Building level 4
[3] Building level 4
[5] Building level 4
[1] Building level 4
[0] Building level 4
[4] Building level 4
[2] Building level 5
[3] Building level 5
[5] Building level 5
[1] Building level 5
[0] Building level 5
[4] Building level 5
[2] Building level 6
[3] Building level 6
[5] Building level 6
[2] Building level 7
[1] Building level 6
[3] Building level 7
[2] Building level 8
[0] Building level 6
[4] Building level 6
[5] Building level 7
[2] Building level 9
[3] Building level 8
[2] Building level 10
[2] Building level 11
[2] Building level 12
[2] Building level 13
[2] Building level 14
[3] Building level 9
[5] Building level 8
[3] Building level 10
[3] Building level 11
[1] Building level 7
[3] Building level 12
[3] Building level 13
[3] Building level 14
[5] Building level 9
[4] Building level 7
[0] Building level 7
[5] Building level 10
[5] Building level 11
[5] Building level 12
[5] Building level 13
[5] Building level 14
[1] Building level 8
[4] Building level 8
[0] Building level 8
[1] Building level 9
[4] Building level 9
[0] Building level 9
[1] Building level 10
[4] Building level 10
[1] Building level 11
[0] Building level 10
[4] Building level 11
[1] Building level 12
[4] Building level 12
[1] Building level 13
[0] Building level 11
[1] Building level 14
[4] Building level 13
[4] Building level 14
[0] Building level 12
[0] Building level 13
[0] Building level 14
14 Level construction complete
initial dot_x = 3.43334e+08
Iter #1 residual = 0.00825361
Iter #2 residual = 0.00521672
Iter #3 residual = 0.00333512
Iter #4 residual = 0.00547571
Iter #5 residual = 0.0060597
Iter #6 residual = 0.00352188
Iter #7 residual = 0.00363821
Iter #8 residual = 0.00253991
Iter #9 residual = 0.00441398
Iter #10 residual = 0.00321303
Iter #11 residual = 0.0034774
Iter #12 residual = 0.00402038
Iter #13 residual = 0.00314505
Iter #14 residual = 0.0033477
Iter #15 residual = 0.00287176
Iter #16 residual = 0.00311809
Iter #17 residual = 0.0028829
Iter #18 residual = 0.00300258
Iter #19 residual = 0.00276692
Iter #20 residual = 0.00307995
Iter #21 residual = 0.00280096
Iter #22 residual = 0.00314189
Iter #23 residual = 0.00280706
Iter #24 residual = 0.00336968
Iter #25 residual = 0.00270192
Iter #26 residual = 0.00383746
Iter #27 residual = 0.00273532
GMRES:  Solving for topLevelCorr, Initial residual = 0.835059, Final residual = 0.862122, No Iterations 200
Iter #28 residual = 0.00103426
GMRES:  Solving for topLevelCorr, Initial residual = 0.930247, Final residual = 1.23893, No Iterations 200
Iter #29 residual = 0.00195392
Iter #30 residual = 0.00537512
Iter #31 residual = 0.00333086
Iter #32 residual = 0.0117749
Iter #33 residual = 0.00656922
Iter #34 residual = 0.00972662
Iter #35 residual = 0.00931808
Iter #36 residual = 0.00625692
Iter #37 residual = 0.00651311
Iter #38 residual = 0.00392206
Iter #39 residual = 0.014297
Iter #40 residual = 0.00718211
Iter #41 residual = 0.0145504
Iter #42 residual = 0.0100189
Iter #43 residual = 0.0052587
Iter #44 residual = 0.00348259
Iter #45 residual = 0.00306908
Iter #46 residual = 0.00254684
Iter #47 residual = 0.00346157
Iter #48 residual = 0.00273398
Iter #49 residual = 0.00542792
Iter #50 residual = 0.00348661
GPU: 50 iters: 8.50812 s: 2.56324 GB/s
GPUAMG:  Solving for pd, Initial residual = 0.0102358, Final residual = 0.00908349, No Iterations 50
[0] Building level 0
[2] Building level 0
[1] Building level 0
[3] Building level 0
[4] Building level 0
[5] Building level 0
[1] Building level 1
[5] Building level 1
[0] Building level 1
[4] Building level 1
[3] Building level 1
[2] Building level 1
[4] Building level 2
[3] Building level 2
[5] Building level 2
[1] Building level 2
[0] Building level 2
[2] Building level 2
[3] Building level 3
[4] Building level 3
[1] Building level 3
[5] Building level 3
[2] Building level 3
[0] Building level 3
[3] Building level 4
[2] Building level 4
[5] Building level 4
[4] Building level 4
[1] Building level 4
[0] Building level 4
[2] Building level 5
[3] Building level 5
[5] Building level 5
[4] Building level 5
[1] Building level 5
[0] Building level 5
[2] Building level 6
[3] Building level 6
[5] Building level 6
[3] Building level 7
[2] Building level 7
[4] Building level 6
[1] Building level 6
[3] Building level 8
[2] Building level 8
[0] Building level 6
[3] Building level 9
[2] Building level 9
[5] Building level 7
[3] Building level 10
[2] Building level 10
[3] Building level 11
[2] Building level 11
[3] Building level 12
[3] Building level 13
[3] Building level 14
[2] Building level 12
[2] Building level 13
[4] Building level 7
[2] Building level 14
[1] Building level 7
[5] Building level 8
[0] Building level 7
[4] Building level 8
[5] Building level 9
[5] Building level 10
[1] Building level 8
[4] Building level 9
[5] Building level 11
[5] Building level 12
[5] Building level 13
[5] Building level 14
[4] Building level 10
[4] Building level 11
[4] Building level 12
[0] Building level 8
[1] Building level 9
[4] Building level 13
[4] Building level 14
[1] Building level 10
[1] Building level 11
[1] Building level 12
[0] Building level 9
[1] Building level 13
[1] Building level 14
[0] Building level 10
[0] Building level 11
[0] Building level 12
[0] Building level 13
[0] Building level 14
14 Level construction complete
initial dot_x = 8.62438e+06
Iter #1 residual = 0.00656026
Iter #2 residual = 0.00282621
Iter #3 residual = 0.00513748
Iter #4 residual = 0.00302529
Iter #5 residual = 0.00186794
Iter #6 residual = 0.00518059
Iter #7 residual = 0.00646971
Iter #8 residual = 0.00502829
Iter #9 residual = 0.00345754
Iter #10 residual = 0.0024666
Iter #11 residual = 0.00374045
Iter #12 residual = 0.00222314
Iter #13 residual = 0.0033136
Iter #14 residual = 0.00446362
Iter #15 residual = 0.00221744
Iter #16 residual = 0.00232699
Iter #17 residual = 0.00189829
Iter #18 residual = 0.00144797
Iter #19 residual = 0.00124746
Iter #20 residual = 0.00146177
Iter #21 residual = 0.00117302
Iter #22 residual = 0.00148577
Iter #23 residual = 0.00113352
Iter #24 residual = 0.00176787
Iter #25 residual = 0.00121224
GMRES:  Solving for topLevelCorr, Initial residual = 0.842857, Final residual = 0.906554, No Iterations 200
Iter #26 residual = 0.000442202
GMRES:  Solving for topLevelCorr, Initial residual = 0.930807, Final residual = 1.23222, No Iterations 200
Iter #27 residual = 0.000851663
Iter #28 residual = 0.00163521
Iter #29 residual = 0.00116177
Iter #30 residual = 0.00142473
Iter #31 residual = 0.00217237
Iter #32 residual = 0.00178694
Iter #33 residual = 0.00217073
Iter #34 residual = 0.00177659
Iter #35 residual = 0.00241327
Iter #36 residual = 0.00181297
Iter #37 residual = 0.00131498
Iter #38 residual = 0.00160415
Iter #39 residual = 0.00208567
Iter #40 residual = 0.00173466
Iter #41 residual = 0.00259795
Iter #42 residual = 0.00189689
Iter #43 residual = 0.00352515
Iter #44 residual = 0.00219864
Iter #45 residual = 0.00885867
Iter #46 residual = 0.00433091
Iter #47 residual = 0.00266637
Iter #48 residual = 0.00146307
Iter #49 residual = 0.00263552
Iter #50 residual = 0.00159838
GPU: 50 iters: 8.4871 s: 2.56958 GB/s
GPUAMG:  Solving for pd, Initial residual = 0.0162265, Final residual = 0.00462517, No Iterations 50
time step continuity errors : sum local = 2.21046e-07, global = -4.2219e-11, cumulative = -7.62766e-08
ExecutionTime = 537.22 s  ClockTime = 565 s

End

Finalising parallel run
