 Data for JOB [5444,1] offset 0

 ========================   JOB MAP   ========================

 Data for node: ivb106	Num slots: 6	Max slots: 0	Num procs: 6
 	Process OMPI jobid: [5444,1] App: 0 Process rank: 0
 	Process OMPI jobid: [5444,1] App: 0 Process rank: 1
 	Process OMPI jobid: [5444,1] App: 0 Process rank: 2
 	Process OMPI jobid: [5444,1] App: 0 Process rank: 3
 	Process OMPI jobid: [5444,1] App: 0 Process rank: 4
 	Process OMPI jobid: [5444,1] App: 0 Process rank: 5

 =============================================================
[ivb106:40662] MCW rank 3 bound to socket 0[core 3[hwt 0]]: [./././B/./././././.][./././././././././.]
[ivb106:40662] MCW rank 4 bound to socket 0[core 4[hwt 0]]: [././././B/././././.][./././././././././.]
[ivb106:40662] MCW rank 5 bound to socket 0[core 5[hwt 0]]: [./././././B/./././.][./././././././././.]
[ivb106:40662] MCW rank 0 bound to socket 0[core 0[hwt 0]]: [B/././././././././.][./././././././././.]
[ivb106:40662] MCW rank 1 bound to socket 0[core 1[hwt 0]]: [./B/./././././././.][./././././././././.]
[ivb106:40662] MCW rank 2 bound to socket 0[core 2[hwt 0]]: [././B/././././././.][./././././././././.]
/*---------------------------------------------------------------------------*\
| =========                 |                                                 |
| \\      /  F ield         | foam-extend: Open Source CFD                    |
|  \\    /   O peration     | Version:     3.1                                |
|   \\  /    A nd           | Web:         http://www.extend-project.de       |
|    \\/     M anipulation  |                                                 |
\*---------------------------------------------------------------------------*/
Build    : 3.1-e2da948002a2
Exec     : pimpleDyMFoam -parallel
Date     : May 26 2016
Time     : 11:47:58
Host     : ivb106
PID      : 40708
CtrlDict : /home-2/vplatonov/foam/foam-extend-3.1/etc/controlDict
Case     : /home/vplatonov/tests/3D-mesh1-of3.1
nProcs   : 6
Slaves : 
5
(
ivb106.40704
ivb106.40714
ivb106.40718
ivb106.40703
ivb106.40720
)

Pstream initialized with:
    floatTransfer     : 0
    nProcsSimpleSum   : 0
    commsType         : blocking
SigFpe   : Enabling floating point exception trapping (FOAM_SIGFPE).

// * * * * * * * * * * * * * * * * * * * * * * * * * * * * * * * * * * * * * //
Create time

Create dynamic mesh for time = 0

Selecting dynamicFvMesh dynamicMotionSolverFvMesh
Selecting motion solver: displacementLaplacian
Selecting motion diffusion: quadratic
Selecting motion diffusion: inverseDistance
Reading field p

Reading field U

Reading/calculating face flux field phi

Selecting incompressible transport model Newtonian
Selecting turbulence model type LESModel
Selecting LES turbulence model oneEqEddy
oneEqEddyCoeffs
{
    ce              1.048;
    ck              0.094;
}

Reading field rAU if present


Starting time loop

Courant Number mean: 0 max: 0.0007592825 velocity magnitude: 0.4779
Reading old state
Before setting displacements
GAMGPCG:  Solving for cellDisplacementx, Initial residual = 0, Final residual = 0, No Iterations 0
GAMGPCG:  Solving for cellDisplacementy, Initial residual = 0, Final residual = 0, No Iterations 0
GAMGPCG:  Solving for cellDisplacementz, Initial residual = 0, Final residual = 0, No Iterations 0
Time = 5e-06

GAMGPCG:  Solving for cellDisplacementx, Initial residual = 0, Final residual = 0, No Iterations 0
GAMGPCG:  Solving for cellDisplacementy, Initial residual = 0, Final residual = 0, No Iterations 0
GAMGPCG:  Solving for cellDisplacementz, Initial residual = 0, Final residual = 0, No Iterations 0
volume continuity errors : volume = 4.535015, max error = 0, sum local = 0, global = 0
smoothSolver:  Solving for Ux, Initial residual = 1, Final residual = 2.285051e-08, No Iterations 1
smoothSolver:  Solving for Uy, Initial residual = 1, Final residual = 2.172388e-08, No Iterations 1
smoothSolver:  Solving for Uz, Initial residual = 0.9999962, Final residual = 4.2334e-08, No Iterations 1
Created persistent data with name p
Computing AINV with droptol 0.02
GPU: 566 iters: 28.56782 s: 20.41839 GB/s
Total exec time 28.56782
 Total comm time 0.5468474Pre time 0.0420143 Post time 0.5048331
GPUBICGS:  Solving for p, Initial residual = 1, Final residual = 0.007306605, No Iterations 566
Computing AINV with droptol 0.02
GPU: 92 iters: 4.717785 s: 20.09702 GB/s
Total exec time 33.2856
 Total comm time 0.6416296Pre time 0.0486679 Post time 0.5929617
GPUBICGS:  Solving for p, Initial residual = 0.0004638092, Final residual = 9.992992e-06, No Iterations 92
time step continuity errors : sum local = 2.249349e-09, global = -4.507218e-10, cumulative = -4.507218e-10
Moving mesh time step continuity errors : sum local = 2.249349e-09, global = -4.507218e-10, cumulative = -9.014435e-10
GPU: 100 iters: 5.099258 s: 20.21041 GB/s
Total exec time 38.38486
 Total comm time 0.7267431Pre time 0.05596627 Post time 0.6707768
GPUBICGS:  Solving for p, Initial residual = 0.0001101848, Final residual = 7.241337e-06, No Iterations 100
GPU: 363 iters: 18.44368 s: 20.28342 GB/s
Total exec time 56.82854
 Total comm time 1.016282Pre time 0.08200416 Post time 0.9342777
GPUBICGS:  Solving for p, Initial residual = 4.401476e-05, Final residual = 7.229024e-08, No Iterations 363
time step continuity errors : sum local = 1.628105e-11, global = -2.455814e-12, cumulative = -9.038993e-10
Moving mesh time step continuity errors : sum local = 1.628105e-11, global = -2.455814e-12, cumulative = -9.063551e-10
smoothSolver:  Solving for k, Initial residual = 1, Final residual = 1.262362e-11, No Iterations 2
ExecutionTime = 143.76 s  ClockTime = 146 s

Courant Number mean: 7.682851e-05 max: 0.002864542 velocity magnitude: 0.9549165
yForce = -1.327923
Y= -2.050161e-12
Vy= -8.200638e-07
Time = 1e-05

GAMGPCG:  Solving for cellDisplacementx, Initial residual = 0, Final residual = 0, No Iterations 0
Total solver time is 0
Total solver time is 0
Total solver time is 1
GAMGPCG:  Solving for cellDisplacementy, Initial residual = 1, Final residual = 3.310289e-09, No Iterations 1
GAMGPCG:  Solving for cellDisplacementz, Initial residual = 0, Final residual = 0, No Iterations 0
volume continuity errors : volume = 4.535015, max error = 1.00093e-08, sum local = 6.067163e-15, global = -5.645549e-18
smoothSolver:  Solving for Ux, Initial residual = 0.9975319, Final residual = 4.955118e-07, No Iterations 1
smoothSolver:  Solving for Uy, Initial residual = 0.3333108, Final residual = 1.44934e-06, No Iterations 1
smoothSolver:  Solving for Uz, Initial residual = 0.3304568, Final residual = 3.961744e-07, No Iterations 1
GPU: 487 iters: 24.83161 s: 20.21186 GB/s
Total exec time 81.66014
 Total comm time 1.422589Pre time 0.1164192 Post time 1.30617
GPUBICGS:  Solving for p, Initial residual = 0.003644738, Final residual = 3.636739e-05, No Iterations 487
GPU: 186 iters: 9.496693 s: 20.18471 GB/s
Total exec time 91.15684
 Total comm time 1.576721Pre time 0.1295485 Post time 1.447172
GPUBICGS:  Solving for p, Initial residual = 0.001408766, Final residual = 1.404255e-05, No Iterations 186
time step continuity errors : sum local = 1.0506e-09, global = 9.01174e-10, cumulative = -5.181179e-12
Moving mesh time step continuity errors : sum local = 1.0506e-09, global = 9.01174e-10, cumulative = 8.959928e-10
GPU: 345 iters: 17.5895 s: 20.21379 GB/s
Total exec time 108.7463
 Total comm time 1.847434Pre time 0.1548186 Post time 1.692615
GPUBICGS:  Solving for p, Initial residual = 0.0003143871, Final residual = 4.995401e-06, No Iterations 345
GPU: 618 iters: 31.52985 s: 20.19987 GB/s
Total exec time 140.2762
 Total comm time 2.331258Pre time 0.1984004 Post time 2.132857
GPUBICGS:  Solving for p, Initial residual = 0.000113735, Final residual = 8.491692e-08, No Iterations 618
time step continuity errors : sum local = 6.37592e-12, global = -6.36147e-12, cumulative = 8.896313e-10
Moving mesh time step continuity errors : sum local = 6.37592e-12, global = -6.36147e-12, cumulative = 8.832698e-10
smoothSolver:  Solving for k, Initial residual = 0.00878222, Final residual = 4.662637e-09, No Iterations 1
ExecutionTime = 258.43 s  ClockTime = 261 s

Courant Number mean: 7.683223e-05 max: 0.002856988 velocity magnitude: 0.9523983
yForce = 3.025507
Y= -1.47944e-12
Vy= 1.048351e-06
Time = 1.5e-05

GAMGPCG:  Solving for cellDisplacementx, Initial residual = 0, Final residual = 0, No Iterations 0
Total solver time is 0
Total solver time is 0
Total solver time is 1
GAMGPCG:  Solving for cellDisplacementy, Initial residual = 0.527789, Final residual = 2.655147e-09, No Iterations 1
GAMGPCG:  Solving for cellDisplacementz, Initial residual = 0, Final residual = 0, No Iterations 0
volume continuity errors : volume = 4.535015, max error = 1.253432e-08, sum local = 6.565015e-15, global = -9.527226e-19
smoothSolver:  Solving for Ux, Initial residual = 0.9921365, Final residual = 4.935507e-07, No Iterations 1
smoothSolver:  Solving for Uy, Initial residual = 0.1837236, Final residual = 8.663348e-07, No Iterations 1
smoothSolver:  Solving for Uz, Initial residual = 0.7860603, Final residual = 8.992569e-07, No Iterations 1
GPU: 450 iters: 22.9372 s: 20.21875 GB/s
Total exec time 163.2134
 Total comm time 2.708754Pre time 0.229868 Post time 2.478886
GPUBICGS:  Solving for p, Initial residual = 0.0028012, Final residual = 2.583498e-05, No Iterations 450
GPU: 391 iters: 19.93052 s: 20.21809 GB/s
Total exec time 183.1439
 Total comm time 3.039787Pre time 0.2578085 Post time 2.781979
GPUBICGS:  Solving for p, Initial residual = 0.04843738, Final residual = 0.0004672238, No Iterations 391
time step continuity errors : sum local = 3.336559e-10, global = -1.159318e-10, cumulative = 7.67338e-10
Moving mesh time step continuity errors : sum local = 3.336559e-10, global = -1.159318e-10, cumulative = 6.514062e-10
GPU: 404 iters: 20.56666 s: 20.24416 GB/s
Total exec time 203.7106
 Total comm time 3.367278Pre time 0.285853 Post time 3.081425
GPUBICGS:  Solving for p, Initial residual = 0.02069756, Final residual = 0.0002058156, No Iterations 404
GPU: 763 iters: 38.83377 s: 20.2487 GB/s
Total exec time 242.5443
 Total comm time 3.956071Pre time 0.3406476 Post time 3.615423
GPUBICGS:  Solving for p, Initial residual = 0.007363502, Final residual = 2.28515e-08, No Iterations 763
time step continuity errors : sum local = 7.541658e-15, global = -4.64624e-16, cumulative = 6.514058e-10
Moving mesh time step continuity errors : sum local = 7.541658e-15, global = -4.64624e-16, cumulative = 6.514053e-10
smoothSolver:  Solving for k, Initial residual = 0.003835592, Final residual = 2.146892e-09, No Iterations 1
ExecutionTime = 390.21 s  ClockTime = 394 s

Courant Number mean: 7.683291e-05 max: 0.002858866 velocity magnitude: 0.9530242
yForce = -0.9434193
Y= 2.305779e-12
Vy= 4.657371e-07
Time = 2e-05

GAMGPCG:  Solving for cellDisplacementx, Initial residual = 0, Final residual = 0, No Iterations 0
Total solver time is 0
Total solver time is 0
Total solver time is 1
GAMGPCG:  Solving for cellDisplacementy, Initial residual = 1, Final residual = 3.341017e-09, No Iterations 1
GAMGPCG:  Solving for cellDisplacementz, Initial residual = 0, Final residual = 0, No Iterations 0
volume continuity errors : volume = 4.535015, max error = 9.429766e-09, sum local = 6.655482e-15, global = 4.391411e-18
smoothSolver:  Solving for Ux, Initial residual = 0.05346761, Final residual = 5.180179e-08, No Iterations 1
smoothSolver:  Solving for Uy, Initial residual = 0.01341944, Final residual = 9.332768e-08, No Iterations 1
smoothSolver:  Solving for Uz, Initial residual = 0.9512502, Final residual = 8.47163e-07, No Iterations 1
GPU: 44 iters: 2.272317 s: 19.95565 GB/s
Total exec time 244.8166
 Total comm time 3.994455Pre time 0.343746 Post time 3.650709
GPUBICGS:  Solving for p, Initial residual = 0.226449, Final residual = 0.001966137, No Iterations 44
GPU: 106 iters: 5.435191 s: 20.09894 GB/s
Total exec time 250.2518
 Total comm time 4.105251Pre time 0.3510557 Post time 3.754196
GPUBICGS:  Solving for p, Initial residual = 0.01224764, Final residual = 0.0001090355, No Iterations 106
time step continuity errors : sum local = 2.942376e-11, global = 9.092202e-12, cumulative = 6.604975e-10
Moving mesh time step continuity errors : sum local = 2.942376e-11, global = 9.092202e-12, cumulative = 6.695897e-10
GPU: 199 iters: 10.1447 s: 20.21603 GB/s
Total exec time 260.3965
 Total comm time 4.251598Pre time 0.3654409 Post time 3.886157
GPUBICGS:  Solving for p, Initial residual = 0.004249548, Final residual = 4.078112e-05, No Iterations 199
GPU: 578 iters: 29.41525 s: 20.25058 GB/s
Total exec time 289.8118
 Total comm time 4.67762Pre time 0.4084323 Post time 4.269188
GPUBICGS:  Solving for p, Initial residual = 0.001811743, Final residual = 8.984525e-08, No Iterations 578
time step continuity errors : sum local = 2.41854e-14, global = -3.329198e-15, cumulative = 6.695864e-10
Moving mesh time step continuity errors : sum local = 2.41854e-14, global = -3.329198e-15, cumulative = 6.69583e-10
smoothSolver:  Solving for k, Initial residual = 0.002273346, Final residual = 1.353552e-09, No Iterations 1
ExecutionTime = 467.92 s  ClockTime = 473 s

Courant Number mean: 7.683347e-05 max: 0.002856744 velocity magnitude: 0.9523168
yForce = -0.5647506
Y= 3.762553e-12
Vy= 1.169725e-07
Time = 2.5e-05

GAMGPCG:  Solving for cellDisplacementx, Initial residual = 0, Final residual = 0, No Iterations 0
Total solver time is 0
Total solver time is 0
Total solver time is 1
GAMGPCG:  Solving for cellDisplacementy, Initial residual = 0.4145855, Final residual = 2.219325e-09, No Iterations 1
GAMGPCG:  Solving for cellDisplacementz, Initial residual = 0, Final residual = 0, No Iterations 0
volume continuity errors : volume = 4.535015, max error = 9.708985e-09, sum local = 6.84239e-15, global = 1.968778e-18
smoothSolver:  Solving for Ux, Initial residual = 0.02761534, Final residual = 1.80436e-08, No Iterations 1
smoothSolver:  Solving for Uy, Initial residual = 0.004596881, Final residual = 3.184555e-08, No Iterations 1
smoothSolver:  Solving for Uz, Initial residual = 0.6666568, Final residual = 6.609619e-07, No Iterations 1
GPU: 9 iters: 0.4871186 s: 19.04101 GB/s
Total exec time 290.2989
 Total comm time 4.689796Pre time 0.409108 Post time 4.280688
GPUBICGS:  Solving for p, Initial residual = 0.1533791, Final residual = 0.001469618, No Iterations 9
GPU: 138 iters: 7.066039 s: 20.12728 GB/s
Total exec time 297.3649
 Total comm time 4.814897Pre time 0.4189891 Post time 4.395907
GPUBICGS:  Solving for p, Initial residual = 0.003718467, Final residual = 3.559945e-05, No Iterations 138
time step continuity errors : sum local = 8.465088e-12, global = -2.071274e-12, cumulative = 6.675118e-10
Moving mesh time step continuity errors : sum local = 8.465088e-12, global = -2.071274e-12, cumulative = 6.654405e-10
GPU: 156 iters: 7.964535 s: 20.18581 GB/s
Total exec time 305.3295
 Total comm time 4.929152Pre time 0.4303292 Post time 4.498823
GPUBICGS:  Solving for p, Initial residual = 0.0009412182, Final residual = 9.249578e-06, No Iterations 156
GPU: 431 iters: 21.92362 s: 20.26035 GB/s
Total exec time 327.2531
 Total comm time 5.239609Pre time 0.4609885 Post time 4.77862
GPUBICGS:  Solving for p, Initial residual = 0.0003297324, Final residual = 9.09235e-08, No Iterations 431
time step continuity errors : sum local = 2.1586e-14, global = -1.263327e-14, cumulative = 6.654279e-10
Moving mesh time step continuity errors : sum local = 2.1586e-14, global = -1.263327e-14, cumulative = 6.654152e-10
smoothSolver:  Solving for k, Initial residual = 0.00155491, Final residual = 9.812331e-10, No Iterations 1
ExecutionTime = 535.39 s  ClockTime = 541 s

Courant Number mean: 7.68336e-05 max: 0.002854614 velocity magnitude: 0.9516069
yForce = 0.6074366
Y= 5.285228e-12
Vy= 4.920972e-07
Time = 3e-05

GAMGPCG:  Solving for cellDisplacementx, Initial residual = 0, Final residual = 0, No Iterations 0
Total solver time is 0
Total solver time is 0
Total solver time is 1
GAMGPCG:  Solving for cellDisplacementy, Initial residual = 0.3526413, Final residual = 1.157663e-09, No Iterations 1
GAMGPCG:  Solving for cellDisplacementz, Initial residual = 0, Final residual = 0, No Iterations 0
volume continuity errors : volume = 4.535015, max error = 1.007411e-08, sum local = 6.840098e-15, global = 5.106969e-18
smoothSolver:  Solving for Ux, Initial residual = 0.01762527, Final residual = 8.831642e-09, No Iterations 1
smoothSolver:  Solving for Uy, Initial residual = 0.001243264, Final residual = 1.622819e-08, No Iterations 1
smoothSolver:  Solving for Uz, Initial residual = 0.2225626, Final residual = 1.427091e-06, No Iterations 1
GPU: 3 iters: 0.1839262 s: 16.80969 GB/s
Total exec time 327.437
 Total comm time 5.242637Pre time 0.4612402 Post time 4.781397
GPUBICGS:  Solving for p, Initial residual = 0.1088448, Final residual = 0.000702557, No Iterations 3
GPU: 44 iters: 2.258565 s: 20.07716 GB/s
Total exec time 329.6956
 Total comm time 5.272348Pre time 0.4643892 Post time 4.807959
GPUBICGS:  Solving for p, Initial residual = 0.001329068, Final residual = 1.295012e-05, No Iterations 44
time step continuity errors : sum local = 2.778232e-12, global = -2.570664e-14, cumulative = 6.653895e-10
Moving mesh time step continuity errors : sum local = 2.778232e-12, global = -2.570664e-14, cumulative = 6.653638e-10
GPU: 48 iters: 2.464214 s: 20.07451 GB/s
Total exec time 332.1598
 Total comm time 5.314022Pre time 0.4679971 Post time 4.846025
GPUBICGS:  Solving for p, Initial residual = 0.0002646813, Final residual = 9.606852e-06, No Iterations 48
GPU: 453 iters: 23.03997 s: 20.26275 GB/s
Total exec time 355.1998
 Total comm time 5.673572Pre time 0.5001635 Post time 5.173408
GPUBICGS:  Solving for p, Initial residual = 0.0001029596, Final residual = 9.743422e-08, No Iterations 453
time step continuity errors : sum local = 2.089494e-14, global = -2.087809e-14, cumulative = 6.653429e-10
Moving mesh time step continuity errors : sum local = 2.089494e-14, global = -2.087809e-14, cumulative = 6.65322e-10
smoothSolver:  Solving for k, Initial residual = 0.00115698, Final residual = 7.629166e-10, No Iterations 1
ExecutionTime = 593.2 s  ClockTime = 599 s

Courant Number mean: 7.683369e-05 max: 0.002852247 velocity magnitude: 0.9508176
yForce = -0.2445916
Y= 7.36809e-12
Vy= 3.410479e-07
Time = 3.5e-05

GAMGPCG:  Solving for cellDisplacementx, Initial residual = 0, Final residual = 0, No Iterations 0
Total solver time is 0
Total solver time is 0
Total solver time is 1
GAMGPCG:  Solving for cellDisplacementy, Initial residual = 0.3580533, Final residual = 1.166397e-09, No Iterations 1
GAMGPCG:  Solving for cellDisplacementz, Initial residual = 0, Final residual = 0, No Iterations 0
volume continuity errors : volume = 4.535015, max error = 8.638576e-09, sum local = 6.838959e-15, global = 1.956289e-18
smoothSolver:  Solving for Ux, Initial residual = 0.01352926, Final residual = 6.940925e-09, No Iterations 1
smoothSolver:  Solving for Uy, Initial residual = 0.0009622758, Final residual = 1.214124e-08, No Iterations 1
smoothSolver:  Solving for Uz, Initial residual = 0.4244243, Final residual = 2.855852e-06, No Iterations 1
GPU: 2 iters: 0.1337518 s: 15.41034 GB/s
Total exec time 355.3335
 Total comm time 5.677554Pre time 0.5003358 Post time 5.177218
GPUBICGS:  Solving for p, Initial residual = 0.09114456, Final residual = 0.0003787109, No Iterations 2
GPU: 23 iters: 1.199758 s: 19.75678 GB/s
Total exec time 356.5333
 Total comm time 5.696481Pre time 0.5020353 Post time 5.194445
GPUBICGS:  Solving for p, Initial residual = 0.0005609452, Final residual = 9.623663e-06, No Iterations 23
time step continuity errors : sum local = 1.89579e-12, global = -2.847552e-14, cumulative = 6.652936e-10
Moving mesh time step continuity errors : sum local = 1.89579e-12, global = -2.847552e-14, cumulative = 6.652651e-10
GPU: 8 iters: 0.4422981 s: 18.64048 GB/s
Total exec time 356.9756
 Total comm time 5.703346Pre time 0.5026181 Post time 5.200728
GPUBICGS:  Solving for p, Initial residual = 8.295749e-05, Final residual = 9.804563e-06, No Iterations 8
GPU: 489 iters: 24.86938 s: 20.26404 GB/s
Total exec time 381.845
 Total comm time 6.083793Pre time 0.5374408 Post time 5.546352
GPUBICGS:  Solving for p, Initial residual = 2.956048e-05, Final residual = 9.443697e-08, No Iterations 489
time step continuity errors : sum local = 1.860073e-14, global = -6.063941e-15, cumulative = 6.65259e-10
Moving mesh time step continuity errors : sum local = 1.860073e-14, global = -6.063941e-15, cumulative = 6.65253e-10
smoothSolver:  Solving for k, Initial residual = 0.0009097857, Final residual = 6.330938e-10, No Iterations 1
ExecutionTime = 650.33 s  ClockTime = 656 s

Courant Number mean: 7.683374e-05 max: 0.002849502 velocity magnitude: 0.9499025
yForce = -0.03067304
Y= 9.025973e-12
Vy= 3.221052e-07
Time = 4e-05

GAMGPCG:  Solving for cellDisplacementx, Initial residual = 0, Final residual = 0, No Iterations 0
Total solver time is 0
Total solver time is 0
Total solver time is 1
GAMGPCG:  Solving for cellDisplacementy, Initial residual = 0.242336, Final residual = 8.525676e-10, No Iterations 1
GAMGPCG:  Solving for cellDisplacementz, Initial residual = 0, Final residual = 0, No Iterations 0
volume continuity errors : volume = 4.535015, max error = 1.229013e-08, sum local = 6.857382e-15, global = -1.471048e-18
smoothSolver:  Solving for Ux, Initial residual = 0.0109579, Final residual = 5.676558e-09, No Iterations 1
smoothSolver:  Solving for Uy, Initial residual = 0.0008055979, Final residual = 9.762365e-09, No Iterations 1
smoothSolver:  Solving for Uz, Initial residual = 0.2897028, Final residual = 2.755675e-06, No Iterations 1
GPU: 2 iters: 0.1325658 s: 15.54821 GB/s
Total exec time 381.9775
 Total comm time 6.085086Pre time 0.5376007 Post time 5.547485
GPUBICGS:  Solving for p, Initial residual = 0.0749711, Final residual = 0.0001464287, No Iterations 2
GPU: 9 iters: 0.4888081 s: 18.97519 GB/s
Total exec time 382.4663
 Total comm time 6.094333Pre time 0.5382692 Post time 5.556063
GPUBICGS:  Solving for p, Initial residual = 0.0002943612, Final residual = 9.712116e-06, No Iterations 9
time step continuity errors : sum local = 1.777451e-12, global = 1.64205e-14, cumulative = 6.652694e-10
Moving mesh time step continuity errors : sum local = 1.777451e-12, global = 1.64205e-14, cumulative = 6.652858e-10
GPU: 2 iters: 0.1390141 s: 14.827 GB/s
Total exec time 382.6053
 Total comm time 6.096367Pre time 0.5384339 Post time 5.557933
GPUBICGS:  Solving for p, Initial residual = 3.595963e-05, Final residual = 9.98789e-06, No Iterations 2
GPU: 414 iters: 21.03866 s: 20.27983 GB/s
Total exec time 403.644
 Total comm time 6.435652Pre time 0.5687998 Post time 5.866852
GPUBICGS:  Solving for p, Initial residual = 1.571782e-05, Final residual = 9.973211e-08, No Iterations 414
time step continuity errors : sum local = 1.82514e-14, global = 1.823263e-14, cumulative = 6.65304e-10
Moving mesh time step continuity errors : sum local = 1.82514e-14, global = 1.823263e-14, cumulative = 6.653223e-10
smoothSolver:  Solving for k, Initial residual = 0.0007437228, Final residual = 5.397479e-10, No Iterations 1
ExecutionTime = 702.97 s  ClockTime = 709 s

Courant Number mean: 7.683376e-05 max: 0.002846382 velocity magnitude: 0.9488625
yForce = 0.09225608
Y= 1.077893e-11
Vy= 3.790778e-07
Time = 4.5e-05

GAMGPCG:  Solving for cellDisplacementx, Initial residual = 0, Final residual = 0, No Iterations 0
Total solver time is 0
Total solver time is 0
Total solver time is 1
GAMGPCG:  Solving for cellDisplacementy, Initial residual = 0.2199053, Final residual = 7.231657e-10, No Iterations 1
GAMGPCG:  Solving for cellDisplacementz, Initial residual = 0, Final residual = 0, No Iterations 0
volume continuity errors : volume = 4.535015, max error = 1.278575e-08, sum local = 6.854694e-15, global = -1.862091e-18
smoothSolver:  Solving for Ux, Initial residual = 0.009362127, Final residual = 4.835652e-09, No Iterations 1
smoothSolver:  Solving for Uy, Initial residual = 0.0006803122, Final residual = 8.07068e-09, No Iterations 1
smoothSolver:  Solving for Uz, Initial residual = 0.3555923, Final residual = 1.639573e-06, No Iterations 1
GPU: 2 iters: 0.1400449 s: 14.71786 GB/s
Total exec time 403.7841
 Total comm time 6.438446Pre time 0.5689651 Post time 5.869481
GPUBICGS:  Solving for p, Initial residual = 0.06276991, Final residual = 0.0001102042, No Iterations 2
GPU: 8 iters: 0.4359985 s: 18.90981 GB/s
Total exec time 404.22
 Total comm time 6.446403Pre time 0.5695804 Post time 5.876823
GPUBICGS:  Solving for p, Initial residual = 0.0002190127, Final residual = 9.287884e-06, No Iterations 8
time step continuity errors : sum local = 1.592916e-12, global = 4.567603e-14, cumulative = 6.65368e-10
Moving mesh time step continuity errors : sum local = 1.592916e-12, global = 4.567603e-14, cumulative = 6.654136e-10
GPU: 2 iters: 0.1318506 s: 15.63255 GB/s
Total exec time 404.3519
 Total comm time 6.448722Pre time 0.5697458 Post time 5.878976
GPUBICGS:  Solving for p, Initial residual = 2.333186e-05, Final residual = 9.421757e-06, No Iterations 2
GPU: 456 iters: 23.22813 s: 20.23171 GB/s
Total exec time 427.58
 Total comm time 6.844985Pre time 0.6017555 Post time 6.24323
GPUBICGS:  Solving for p, Initial residual = 1.145103e-05, Final residual = 3.754165e-08, No Iterations 456
time step continuity errors : sum local = 6.438356e-15, global = 2.918276e-16, cumulative = 6.654139e-10
Moving mesh time step continuity errors : sum local = 6.438356e-15, global = 2.918276e-16, cumulative = 6.654142e-10
smoothSolver:  Solving for k, Initial residual = 0.0006256188, Final residual = 4.717859e-10, No Iterations 1
ExecutionTime = 756.66 s  ClockTime = 763 s

Courant Number mean: 7.683376e-05 max: 0.002842881 velocity magnitude: 0.948245
yForce = -0.04507158
Y= 1.260473e-11
Vy= 3.512431e-07
Time = 5e-05

GAMGPCG:  Solving for cellDisplacementx, Initial residual = 0, Final residual = 0, No Iterations 0
Total solver time is 0
Total solver time is 0
Total solver time is 1
GAMGPCG:  Solving for cellDisplacementy, Initial residual = 0.1984205, Final residual = 6.485642e-10, No Iterations 1
GAMGPCG:  Solving for cellDisplacementz, Initial residual = 0, Final residual = 0, No Iterations 0
volume continuity errors : volume = 4.535015, max error = 8.856686e-09, sum local = 6.855143e-15, global = -2.025237e-19
smoothSolver:  Solving for Ux, Initial residual = 0.008282632, Final residual = 4.219418e-09, No Iterations 1
smoothSolver:  Solving for Uy, Initial residual = 0.0005948712, Final residual = 6.845401e-09, No Iterations 1
smoothSolver:  Solving for Uz, Initial residual = 0.2893339, Final residual = 9.142718e-07, No Iterations 1
GPU: 2 iters: 0.1317532 s: 15.64411 GB/s
Total exec time 427.7118
 Total comm time 6.846587Pre time 0.60193 Post time 6.244657
GPUBICGS:  Solving for p, Initial residual = 0.05636564, Final residual = 8.496388e-05, No Iterations 2
GPU: 6 iters: 0.3334386 s: 18.5446 GB/s
Total exec time 428.0452
 Total comm time 6.849981Pre time 0.6024075 Post time 6.247573
GPUBICGS:  Solving for p, Initial residual = 0.0001702957, Final residual = 8.849646e-06, No Iterations 6
time step continuity errors : sum local = 1.432062e-12, global = -3.173778e-14, cumulative = 6.653825e-10
Moving mesh time step continuity errors : sum local = 1.432062e-12, global = -3.173778e-14, cumulative = 6.653507e-10
GPU: 1 iters: 0.0883552 s: 11.66407 GB/s
Total exec time 428.1336
 Total comm time 6.851126Pre time 0.6025058 Post time 6.24862
GPUBICGS:  Solving for p, Initial residual = 1.862046e-05, Final residual = 9.349027e-06, No Iterations 1
GPU: 432 iters: 21.98441 s: 20.25121 GB/s
Total exec time 450.118
 Total comm time 7.217738Pre time 0.6339868 Post time 6.583751
GPUBICGS:  Solving for p, Initial residual = 1.037215e-05, Final residual = 9.765249e-08, No Iterations 432
time step continuity errors : sum local = 1.580186e-14, global = -9.335627e-15, cumulative = 6.653414e-10
Moving mesh time step continuity errors : sum local = 1.580186e-14, global = -9.335627e-15, cumulative = 6.653321e-10
smoothSolver:  Solving for k, Initial residual = 0.0005379007, Final residual = 4.204784e-10, No Iterations 1
ExecutionTime = 809.51 s  ClockTime = 817 s

yForce = 0.002060491
Y= 1.436413e-11
Vy= 3.52515e-07
End

Finalising parallel run
