 Data for JOB [9130,1] offset 0

 ========================   JOB MAP   ========================

 Data for node: ivb100	Num slots: 1	Max slots: 0	Num procs: 1
 	Process OMPI jobid: [9130,1] App: 0 Process rank: 0

 Data for node: ivb103	Num slots: 1	Max slots: 0	Num procs: 1
 	Process OMPI jobid: [9130,1] App: 0 Process rank: 1

 =============================================================
[ivb100:29103] MCW rank 0 bound to socket 0[core 0[hwt 0]]: [B/././././././././.][./././././././././.]
[ivb103:21847] MCW rank 1 bound to socket 0[core 0[hwt 0]]: [B/././././././././.][./././././././././.]
0
0
/*---------------------------------------------------------------------------*\
| =========                 |                                                 |
| \\      /  F ield         | foam-extend: Open Source CFD                    |
|  \\    /   O peration     | Version:     3.1                                |
|   \\  /    A nd           | Web:         http://www.extend-project.de       |
|    \\/     M anipulation  |                                                 |
\*---------------------------------------------------------------------------*/
Build    : 3.1-e2da948002a2
Exec     : pimpleDyMFoam -parallel
Date     : May 25 2016
Time     : 06:43:01
Host     : ivb100
PID      : 29122
CtrlDict : /home-2/vplatonov/foam/foam-extend-3.1/etc/controlDict
Case     : /home/vplatonov/tests/screwPump-8mln
nProcs   : 2
Slaves : 
1
(
ivb103.21861
)

Pstream initialized with:
    floatTransfer     : 0
    nProcsSimpleSum   : 0
    commsType         : blocking
SigFpe   : Enabling floating point exception trapping (FOAM_SIGFPE).

// * * * * * * * * * * * * * * * * * * * * * * * * * * * * * * * * * * * * * //
Create time

Create dynamic mesh for time = 0

Selecting dynamicFvMesh mixerGgiFvMesh
Initializing the GGI interpolator between master/shadow patches: stator-slider/rotor-slider
void mixerGgiFvMesh::addZonesAndModifiers() : Zones and modifiers already present.  Skipping.
Mixer mesh:
    origin: (0 0 0)
    axis  : (0 1 0)
    rpm   : 2000
Reading field p

Reading field U

Reading/calculating face flux field phi

Selecting incompressible transport model Newtonian
Selecting turbulence model type LESModel
Selecting LES turbulence model Smagorinsky
SmagorinskyCoeffs
{
    ce              1.048;
    ck              0.094;
}

Reading field rAU if present


Starting time loop

Courant Number mean: 0 max: 0 velocity magnitude: 0
Creating ggi check function object
Time = 1e-06

volume continuity errors : volume = 0.4378, max error = 5.3993e-07, sum local = 9.49949e-15, global = -3.0311e-18
smoothSolver:  Solving for Ux, Initial residual = 1, Final residual = 2.41813e-08, No Iterations 1
smoothSolver:  Solving for Uy, Initial residual = 1, Final residual = 1.94125e-08, No Iterations 1
smoothSolver:  Solving for Uz, Initial residual = 1, Final residual = 2.37644e-08, No Iterations 1
Created persistent data with name p
[0] Building level 0
[1] Building level 0
[1] Building level 1
Creating AMGLevel 
[0] Building level 1
[1] Building level 2
Creating AMGLevel 
[0] Building level 2
[1] Building level 3
Creating AMGLevel 
[0] Building level 3
[1] Building level 4
Creating AMGLevel 
[0] Building level 4
[1] Building level 5
Creating AMGLevel 
[0] Building level 5
[1] Building level 6
[1] Building level 7
[1] Building level 8
Creating AMGLevel 
[0] Building level 6
[1] Building level 9
[1] Building level 10
[1] Building level 11
[1] Building level 12
[1] Building level 13
[1] Building level 14
Creating AMGLevel 
[0] Building level 7
Creating AMGLevel 
[0] Building level 8
Creating AMGLevel 
[0] Building level 9
Creating AMGLevel 
[0] Building level 10
Creating AMGLevel 
[0] Building level 11
Creating AMGLevel 
[0] Building level 12
Creating AMGLevel 
[0] Building level 13
Creating AMGLevel 
[0] Building level 14
Creating AMGLevel 
14 Level construction complete
initial dot_x = 0
GMRES:  Solving for topLevelCorr, Initial residual = 0.864231, Final residual = 0.916943, No Iterations 200
Iter #1 residual = 1.31698
Iter #2 residual = 0.708858
Iter #3 residual = 0.314918
Iter #4 residual = 0.169182
Iter #5 residual = 0.10814
Iter #6 residual = 0.0696609
Iter #7 residual = 0.0488641
Iter #8 residual = 0.0337419
Iter #9 residual = 0.0250121
Iter #10 residual = 0.0197146
Iter #11 residual = 0.0145606
Iter #12 residual = 0.013704
Iter #13 residual = 0.00946287
Iter #14 residual = 0.0106123
Iter #15 residual = 0.00667395
Iter #16 residual = 0.00669904
Iter #17 residual = 0.00501431
Iter #18 residual = 0.00537542
Iter #19 residual = 0.00349252
Iter #20 residual = 0.00446027
Iter #21 residual = 0.00254234
Iter #22 residual = 0.00251733
Iter #23 residual = 0.001704
Iter #24 residual = 0.00186547
Iter #25 residual = 0.00113098
Iter #26 residual = 0.00132492
GPU: 26 iters: 5.58613 s: 4.14791 GB/s
GPUAMG:  Solving for p, Initial residual = 1, Final residual = 0.000763252, No Iterations 26
[0] Building level 0
[1] Building level 0
[0] Building level 1
[1] Building level 1
[0] Building level 2
[1] Building level 2
[0] Building level 3
[1] Building level 3
[0] Building level 4
[1] Building level 4
[0] Building level 5
[1] Building level 5
[0] Building level 6
[1] Building level 6
[0] Building level 7
[0] Building level 8
[0] Building level 9
[1] Building level 7
[0] Building level 10
[0] Building level 11
[0] Building level 12
[0] Building level 13
[0] Building level 14
14 Level construction complete
[1] Building level 8
[1] Building level 9
[1] Building level 10
[1] Building level 11
[1] Building level 12
[1] Building level 13
[1] Building level 14
initial dot_x = 2.99695e+16
Iter #1 residual = 0.328074
Iter #2 residual = 0.143486
Iter #3 residual = 0.0914652
Iter #4 residual = 0.0614088
Iter #5 residual = 0.045655
Iter #6 residual = 0.0407834
Iter #7 residual = 0.0332104
Iter #8 residual = 0.0292129
Iter #9 residual = 0.0231319
Iter #10 residual = 0.0190625
Iter #11 residual = 0.0155526
Iter #12 residual = 0.0165982
Iter #13 residual = 0.0135668
Iter #14 residual = 0.0137614
Iter #15 residual = 0.0106071
Iter #16 residual = 0.0108284
Iter #17 residual = 0.00756491
Iter #18 residual = 0.0149567
Iter #19 residual = 0.00751452
Iter #20 residual = 0.0110001
Iter #21 residual = 0.0053164
Iter #22 residual = 0.00359176
Iter #23 residual = 0.00273695
Iter #24 residual = 0.00215593
Iter #25 residual = 0.00177219
Iter #26 residual = 0.00152952
Iter #27 residual = 0.00139577
Iter #28 residual = 0.00114667
Iter #29 residual = 0.00143343
Iter #30 residual = 0.000934251
Iter #31 residual = 0.00144156
Iter #32 residual = 0.000807219
Iter #33 residual = 0.00121133
Iter #34 residual = 0.000605769
Iter #35 residual = 0.000651823
Iter #36 residual = 0.000368575
Iter #37 residual = 0.000416877
GPU: 37 iters: 7.76559 s: 4.24614 GB/s
GPUAMG:  Solving for p, Initial residual = 0.269905, Final residual = 0.000230698, No Iterations 37
time step continuity errors : sum local = 1.74924e-08, global = -7.13567e-10, cumulative = -7.13567e-10
Moving mesh time step continuity errors : sum local = 1.74924e-08, global = -7.13567e-10, cumulative = -1.42713e-09
ExecutionTime = 102.47 s  ClockTime = 107 s

Courant Number mean: 0.00257134 max: 0.137695 velocity magnitude: 107.495
GGI pair (stator-slider, rotor-slider) : 3.51972 6.99606 Diff = 0.000124767 or 0.00354479 %
Time = 2e-06

volume continuity errors : volume = 0.4378, max error = 4.33092e-07, sum local = 8.16387e-15, global = -2.72617e-18
smoothSolver:  Solving for Ux, Initial residual = 0.33498, Final residual = 2.37697e-09, No Iterations 2
smoothSolver:  Solving for Uy, Initial residual = 0.302702, Final residual = 4.44079e-09, No Iterations 2
smoothSolver:  Solving for Uz, Initial residual = 0.334945, Final residual = 1.45894e-09, No Iterations 2
[0] Building level 0
[1] Building level 0
[1] Building level 1
[0] Building level 1
Reconstruction on level 1
[1] Building level 2
Creating AMGLevel 
[0] Building level 2
Reconstruction on level 2
Creating AMGLevel 
[0] Building level 3
Reconstruction on level 3
[1] Building level 3
Creating AMGLevel 
[0] Building level 4
Reconstruction on level 4
[1] Building level 4
Creating AMGLevel 
[0] Building level 5
Reconstruction on level 5
[1] Building level 5
Creating AMGLevel 
[0] Building level 6
Reconstruction on level 6
[1] Building level 6
Creating AMGLevel 
[0] Building level 7
Reconstruction on level 7
Creating AMGLevel 
[0] Building level 8
Reconstruction on level 8
[1] Building level 7
Creating AMGLevel 
[0] Building level 9
Reconstruction on level 9
Creating AMGLevel 
[0] Building level 10
Reconstruction on level 10
Creating AMGLevel 
[0] Building level 11
Reconstruction on level 11
Creating AMGLevel 
[0] Building level 12
Reconstruction on level 12
Creating AMGLevel 
[0] Building level 13
Reconstruction on level 13
[1] Building level 8
Creating AMGLevel 
[0] Building level 14
Reconstruction on level 14
Creating AMGLevel 
14 Level construction complete
[1] Building level 9
[1] Building level 10
[1] Building level 11
[1] Building level 12
[1] Building level 13
[1] Building level 14
initial dot_x = 2.74419e+18
Iter #1 residual = 0.211147
Iter #2 residual = 0.101296
Iter #3 residual = 0.0503206
Iter #4 residual = 0.0266608
Iter #5 residual = 0.0154068
Iter #6 residual = 0.00940141
Iter #7 residual = 0.00608563
Iter #8 residual = 0.00441121
Iter #9 residual = 0.00285541
Iter #10 residual = 0.00303418
Iter #11 residual = 0.00162229
Iter #12 residual = 0.00229101
Iter #13 residual = 0.00100308
Iter #14 residual = 0.000744504
Iter #15 residual = 0.000444441
Iter #16 residual = 0.000463294
GPU: 16 iters: 3.4808 s: 4.09645 GB/s
GPUAMG:  Solving for p, Initial residual = 0.443815, Final residual = 0.000275773, No Iterations 16
[0] Building level 0
[1] Building level 0
[1] Building level 1
[0] Building level 1
[1] Building level 2
[0] Building level 2
[1] Building level 3
[0] Building level 3
[1] Building level 4
[0] Building level 4
[1] Building level 5
[0] Building level 5
[1] Building level 6
[0] Building level 6
[1] Building level 7
[1] Building level 8
[1] Building level 9
[1] Building level 10
[0] Building level 7
[1] Building level 11
[1] Building level 12
[1] Building level 13
[1] Building level 14
[0] Building level 8
[0] Building level 9
[0] Building level 10
[0] Building level 11
[0] Building level 12
[0] Building level 13
[0] Building level 14
14 Level construction complete
initial dot_x = 2.53196e+18
Iter #1 residual = 0.046552
Iter #2 residual = 0.0242509
Iter #3 residual = 0.0167247
Iter #4 residual = 0.0130638
Iter #5 residual = 0.00981632
Iter #6 residual = 0.00787071
Iter #7 residual = 0.00722971
Iter #8 residual = 0.00536002
Iter #9 residual = 0.00545119
Iter #10 residual = 0.00383588
Iter #11 residual = 0.00434701
Iter #12 residual = 0.00283154
Iter #13 residual = 0.00404732
Iter #14 residual = 0.00220331
Iter #15 residual = 0.00390619
Iter #16 residual = 0.00163709
Iter #17 residual = 0.00107252
Iter #18 residual = 0.00075283
Iter #19 residual = 0.00058166
Iter #20 residual = 0.000458371
Iter #21 residual = 0.000377828
Iter #22 residual = 0.000318015
Iter #23 residual = 0.000270832
Iter #24 residual = 0.000238202
Iter #25 residual = 0.000200067
Iter #26 residual = 0.000194012
Iter #27 residual = 0.000154061
Iter #28 residual = 0.000193033
Iter #29 residual = 0.000129052
Iter #30 residual = 0.000322686
Iter #31 residual = 0.000142627
GPU: 31 iters: 6.6352 s: 4.16365 GB/s
GPUAMG:  Solving for p, Initial residual = 0.121088, Final residual = 0.000104623, No Iterations 31
time step continuity errors : sum local = 1.7642e-08, global = 1.72816e-09, cumulative = 3.01028e-10
Moving mesh time step continuity errors : sum local = 1.7642e-08, global = 1.72816e-09, cumulative = 2.02919e-09
ExecutionTime = 165.27 s  ClockTime = 171 s

Courant Number mean: 0.00276422 max: 0.226922 velocity magnitude: 112.54
GGI pair (stator-slider, rotor-slider) : 5.63151 9.37355 Diff = 0.00569546 or 0.101136 %
Time = 3e-06

volume continuity errors : volume = 0.4378, max error = 4.09919e-07, sum local = 7.36552e-15, global = 4.23975e-18
smoothSolver:  Solving for Ux, Initial residual = 0.193428, Final residual = 9.75329e-09, No Iterations 2
smoothSolver:  Solving for Uy, Initial residual = 0.13144, Final residual = 2.00988e-08, No Iterations 2
smoothSolver:  Solving for Uz, Initial residual = 0.173393, Final residual = 5.29731e-09, No Iterations 2
[0] Building level 0
[1] Building level 0
[1] Building level 1
[0] Building level 1
Reconstruction on level 1
Creating AMGLevel 
[1] Building level 2
[0] Building level 2
Reconstruction on level 2
[1] Building level 3
Creating AMGLevel 
[0] Building level 3
Reconstruction on level 3
Creating AMGLevel 
[0] Building level 4
Reconstruction on level 4
[1] Building level 4
Creating AMGLevel 
[0] Building level 5
Reconstruction on level 5
[1] Building level 5
Creating AMGLevel 
[0] Building level 6
Reconstruction on level 6
[1] Building level 6
Creating AMGLevel 
[0] Building level 7
Reconstruction on level 7
[1] Building level 7
Creating AMGLevel 
[0] Building level 8
Reconstruction on level 8
[1] Building level 8
Creating AMGLevel 
[0] Building level 9
Reconstruction on level 9
Creating AMGLevel 
[0] Building level 10
Reconstruction on level 10
[1] Building level 9
Creating AMGLevel 
[0] Building level 11
Reconstruction on level 11
Creating AMGLevel 
[0] Building level 12
Reconstruction on level 12
Creating AMGLevel 
[0] Building level 13
Reconstruction on level 13
Creating AMGLevel 
[0] Building level 14
Reconstruction on level 14
Creating AMGLevel 
14 Level construction complete
[1] Building level 10
[1] Building level 11
[1] Building level 12
[1] Building level 13
[1] Building level 14
initial dot_x = 1.7029e+18
Iter #1 residual = 0.0892882
Iter #2 residual = 0.0432735
Iter #3 residual = 0.0210881
Iter #4 residual = 0.0114512
Iter #5 residual = 0.0068917
Iter #6 residual = 0.00420625
Iter #7 residual = 0.00277099
Iter #8 residual = 0.0018923
Iter #9 residual = 0.00144085
Iter #10 residual = 0.00100097
Iter #11 residual = 0.000958132
Iter #12 residual = 0.000625534
Iter #13 residual = 0.000774006
Iter #14 residual = 0.000438651
Iter #15 residual = 0.000502612
Iter #16 residual = 0.000294531
Iter #17 residual = 0.000374963
Iter #18 residual = 0.000241626
GPU: 18 iters: 3.8982 s: 4.11505 GB/s
GPUAMG:  Solving for p, Initial residual = 0.219542, Final residual = 0.000145469, No Iterations 18
[0] Building level 0
[1] Building level 0
[1] Building level 1
[0] Building level 1
[1] Building level 2
[0] Building level 2
[1] Building level 3
[0] Building level 3
[1] Building level 4
[0] Building level 4
[1] Building level 5
[0] Building level 5
[1] Building level 6
[0] Building level 6
[1] Building level 7
[1] Building level 8
[0] Building level 7
[1] Building level 9
[1] Building level 10
[1] Building level 11
[1] Building level 12
[1] Building level 13
[1] Building level 14
[0] Building level 8
[0] Building level 9
[0] Building level 10
[0] Building level 11
[0] Building level 12
[0] Building level 13
[0] Building level 14
14 Level construction complete
initial dot_x = 1.71466e+18
Iter #1 residual = 0.0644673
Iter #2 residual = 0.0243551
Iter #3 residual = 0.0239717
Iter #4 residual = 0.0095865
Iter #5 residual = 0.00753628
Iter #6 residual = 0.00437592
Iter #7 residual = 0.00414337
Iter #8 residual = 0.0026894
Iter #9 residual = 0.00393681
Iter #10 residual = 0.00209071
Iter #11 residual = 0.00305018
Iter #12 residual = 0.00144553
Iter #13 residual = 0.000952779
Iter #14 residual = 0.000702995
Iter #15 residual = 0.000548743
Iter #16 residual = 0.000488126
Iter #17 residual = 0.000365448
Iter #18 residual = 0.000301853
Iter #19 residual = 0.000246496
Iter #20 residual = 0.000219125
Iter #21 residual = 0.00022097
Iter #22 residual = 0.000157376
Iter #23 residual = 0.000255427
Iter #24 residual = 0.000143098
Iter #25 residual = 0.000260399
Iter #26 residual = 0.000118273
Iter #27 residual = 9.33352e-05
GPU: 27 iters: 5.75659 s: 4.17989 GB/s
GPUAMG:  Solving for p, Initial residual = 0.0726299, Final residual = 5.93764e-05, No Iterations 27
time step continuity errors : sum local = 9.84316e-09, global = -5.25887e-10, cumulative = 1.5033e-09
Moving mesh time step continuity errors : sum local = 9.84316e-09, global = -5.25887e-10, cumulative = 9.77415e-10
ExecutionTime = 227.61 s  ClockTime = 234 s

Courant Number mean: 0.00281623 max: 0.274718 velocity magnitude: 137.868
GGI pair (stator-slider, rotor-slider) : 6.5157 9.74983 Diff = 0.00889109 or 0.136456 %
Time = 4e-06

volume continuity errors : volume = 0.4378, max error = 3.21144e-07, sum local = 7.13355e-15, global = -1.56724e-18
smoothSolver:  Solving for Ux, Initial residual = 0.0832847, Final residual = 1.07678e-08, No Iterations 2
smoothSolver:  Solving for Uy, Initial residual = 0.0693405, Final residual = 2.11e-08, No Iterations 2
smoothSolver:  Solving for Uz, Initial residual = 0.0760036, Final residual = 5.64387e-09, No Iterations 2
[0] Building level 0
[1] Building level 0
[1] Building level 1
[0] Building level 1
Reconstruction on level 1
Creating AMGLevel 
[0] Building level 2
Reconstruction on level 2
[1] Building level 2
Creating AMGLevel 
[0] Building level 3
Reconstruction on level 3
[1] Building level 3
Creating AMGLevel 
[0] Building level 4
Reconstruction on level 4
[1] Building level 4
Creating AMGLevel 
[0] Building level 5
Reconstruction on level 5
[1] Building level 5
Creating AMGLevel 
[0] Building level 6
Reconstruction on level 6
[1] Building level 6
Creating AMGLevel 
[0] Building level 7
Reconstruction on level 7
[1] Building level 7
Creating AMGLevel 
[0] Building level 8
Reconstruction on level 8
[1] Building level 8
Creating AMGLevel 
[0] Building level 9
Reconstruction on level 9
Creating AMGLevel 
[0] Building level 10
Reconstruction on level 10
Creating AMGLevel 
[0] Building level 11
Reconstruction on level 11
[1] Building level 9
Creating AMGLevel 
[0] Building level 12
Reconstruction on level 12
Creating AMGLevel 
[0] Building level 13
Reconstruction on level 13
Creating AMGLevel 
[0] Building level 14
Reconstruction on level 14
[1] Building level 10
Creating AMGLevel 
14 Level construction complete
[1] Building level 11
[1] Building level 12
[1] Building level 13
[1] Building level 14
initial dot_x = 3.49346e+17
Iter #1 residual = 0.0756218
Iter #2 residual = 0.0386927
Iter #3 residual = 0.0198353
Iter #4 residual = 0.0119077
Iter #5 residual = 0.00769876
Iter #6 residual = 0.00518908
Iter #7 residual = 0.00323254
Iter #8 residual = 0.00321096
Iter #9 residual = 0.00180874
Iter #10 residual = 0.00176363
Iter #11 residual = 0.00106891
Iter #12 residual = 0.000969711
Iter #13 residual = 0.000646447
Iter #14 residual = 0.000840886
Iter #15 residual = 0.000456226
Iter #16 residual = 0.000797617
Iter #17 residual = 0.000351773
Iter #18 residual = 0.000257628
GPU: 18 iters: 3.85193 s: 4.16448 GB/s
GPUAMG:  Solving for p, Initial residual = 0.193505, Final residual = 0.000150248, No Iterations 18
[0] Building level 0
[1] Building level 0
[1] Building level 1
[0] Building level 1
[1] Building level 2
[0] Building level 2
[1] Building level 3
[0] Building level 3
[1] Building level 4
[0] Building level 4
[1] Building level 5
[0] Building level 5
[1] Building level 6
[0] Building level 6
[1] Building level 7
[1] Building level 8
[0] Building level 7
[1] Building level 9
[1] Building level 10
[1] Building level 11
[1] Building level 12
[1] Building level 13
[1] Building level 14
[0] Building level 8
[0] Building level 9
[0] Building level 10
[0] Building level 11
[0] Building level 12
[0] Building level 13
[0] Building level 14
14 Level construction complete
initial dot_x = 4.34394e+17
Iter #1 residual = 0.0713523
Iter #2 residual = 0.0285254
Iter #3 residual = 0.0190144
Iter #4 residual = 0.0100481
Iter #5 residual = 0.00655534
Iter #6 residual = 0.00517211
Iter #7 residual = 0.00455031
Iter #8 residual = 0.00339534
Iter #9 residual = 0.00526928
Iter #10 residual = 0.00281066
Iter #11 residual = 0.00463038
Iter #12 residual = 0.00232167
Iter #13 residual = 0.00181368
Iter #14 residual = 0.00143128
Iter #15 residual = 0.00123409
Iter #16 residual = 0.00107223
Iter #17 residual = 0.000950374
Iter #18 residual = 0.000897298
Iter #19 residual = 0.000760966
Iter #20 residual = 0.000830472
Iter #21 residual = 0.000625775
Iter #22 residual = 0.00104352
Iter #23 residual = 0.000608317
Iter #24 residual = 0.00113764
Iter #25 residual = 0.000579159
Iter #26 residual = 0.000381017
Iter #27 residual = 0.000303922
Iter #28 residual = 0.000238442
Iter #29 residual = 0.000227953
Iter #30 residual = 0.000179295
Iter #31 residual = 0.000237901
Iter #32 residual = 0.000152535
Iter #33 residual = 0.000300236
Iter #34 residual = 0.000144822
Iter #35 residual = 0.000122822
GPU: 35 iters: 7.34208 s: 4.2483 GB/s
GPUAMG:  Solving for p, Initial residual = 0.0871306, Final residual = 7.90222e-05, No Iterations 35
time step continuity errors : sum local = 1.09592e-08, global = -2.46934e-10, cumulative = 7.30482e-10
Moving mesh time step continuity errors : sum local = 1.09592e-08, global = -2.46934e-10, cumulative = 4.83548e-10
ExecutionTime = 291.43 s  ClockTime = 299 s

Courant Number mean: 0.00279949 max: 0.291105 velocity magnitude: 153.097
GGI pair (stator-slider, rotor-slider) : 6.52968 9.28114 Diff = 0.0101473 or 0.155403 %
Time = 5e-06

volume continuity errors : volume = 0.4378, max error = 3.70513e-07, sum local = 7.00194e-15, global = 1.33928e-18
smoothSolver:  Solving for Ux, Initial residual = 0.0385708, Final residual = 6.79422e-09, No Iterations 2
smoothSolver:  Solving for Uy, Initial residual = 0.0351943, Final residual = 1.0681e-08, No Iterations 2
smoothSolver:  Solving for Uz, Initial residual = 0.0270374, Final residual = 3.48332e-09, No Iterations 2
[0] Building level 0
[1] Building level 0
[1] Building level 1
[0] Building level 1
Reconstruction on level 1
Creating AMGLevel 
[1] Building level 2
[0] Building level 2
Reconstruction on level 2
[1] Building level 3
Creating AMGLevel 
[0] Building level 3
Reconstruction on level 3
[1] Building level 4
Creating AMGLevel 
[0] Building level 4
Reconstruction on level 4
[1] Building level 5
Creating AMGLevel 
[0] Building level 5
Reconstruction on level 5
[1] Building level 6
Creating AMGLevel 
[0] Building level 6
Reconstruction on level 6
[1] Building level 7
Creating AMGLevel 
[0] Building level 7
Reconstruction on level 7
[1] Building level 8
Creating AMGLevel 
[0] Building level 8
Reconstruction on level 8
[1] Building level 9
[1] Building level 10
Creating AMGLevel 
[0] Building level 9
Reconstruction on level 9
[1] Building level 11
[1] Building level 12
[1] Building level 13
[1] Building level 14
Creating AMGLevel 
[0] Building level 10
Reconstruction on level 10
Creating AMGLevel 
[0] Building level 11
Reconstruction on level 11
Creating AMGLevel 
[0] Building level 12
Reconstruction on level 12
Creating AMGLevel 
[0] Building level 13
Reconstruction on level 13
Creating AMGLevel 
[0] Building level 14
Reconstruction on level 14
Creating AMGLevel 
14 Level construction complete
initial dot_x = 1.58402e+16
Iter #1 residual = 0.0496121
Iter #2 residual = 0.0218915
Iter #3 residual = 0.011483
Iter #4 residual = 0.00676455
Iter #5 residual = 0.00478455
Iter #6 residual = 0.00300862
Iter #7 residual = 0.00252689
Iter #8 residual = 0.00156275
Iter #9 residual = 0.00161577
Iter #10 residual = 0.000944652
Iter #11 residual = 0.00164533
Iter #12 residual = 0.000691018
Iter #13 residual = 0.000494226
Iter #14 residual = 0.000288679
Iter #15 residual = 0.000228917
GPU: 15 iters: 3.25837 s: 4.10258 GB/s
GPUAMG:  Solving for p, Initial residual = 0.172447, Final residual = 0.000166132, No Iterations 15
[0] Building level 0
[1] Building level 0
[1] Building level 1
[0] Building level 1
[1] Building level 2
[0] Building level 2
[1] Building level 3
[0] Building level 3
[1] Building level 4
[0] Building level 4
[0] Building level 5
[1] Building level 5
[0] Building level 6
[1] Building level 6
[0] Building level 7
[1] Building level 7
[0] Building level 8
[1] Building level 8
[0] Building level 9
[0] Building level 10
[1] Building level 9
[0] Building level 11
[0] Building level 12
[0] Building level 13
[0] Building level 14
14 Level construction complete
[1] Building level 10
[1] Building level 11
[1] Building level 12
[1] Building level 13
[1] Building level 14
initial dot_x = 3.42083e+16
Iter #1 residual = 0.0466186
Iter #2 residual = 0.0175214
Iter #3 residual = 0.0104164
Iter #4 residual = 0.00713314
Iter #5 residual = 0.00408495
Iter #6 residual = 0.00462718
Iter #7 residual = 0.0024407
Iter #8 residual = 0.001635
Iter #9 residual = 0.00137263
Iter #10 residual = 0.00111356
Iter #11 residual = 0.00161633
Iter #12 residual = 0.000930834
Iter #13 residual = 0.00110506
Iter #14 residual = 0.000713623
Iter #15 residual = 0.00101784
Iter #16 residual = 0.000584603
Iter #17 residual = 0.00102348
Iter #18 residual = 0.000487971
Iter #19 residual = 0.000638934
Iter #20 residual = 0.000312888
Iter #21 residual = 0.000298401
Iter #22 residual = 0.00017639
Iter #23 residual = 0.000218931
Iter #24 residual = 0.000115723
Iter #25 residual = 0.000130023
GPU: 25 iters: 5.30565 s: 4.19922 GB/s
GPUAMG:  Solving for p, Initial residual = 0.0725344, Final residual = 6.96732e-05, No Iterations 25
time step continuity errors : sum local = 8.0588e-09, global = 2.78942e-10, cumulative = 7.6249e-10
Moving mesh time step continuity errors : sum local = 8.0588e-09, global = 2.78942e-10, cumulative = 1.04143e-09
ExecutionTime = 383.34 s  ClockTime = 409 s

Courant Number mean: 0.0027649 max: 0.2898 velocity magnitude: 158.488
GGI pair (stator-slider, rotor-slider) : 6.31854 8.6617 Diff = 0.0102712 or 0.162557 %
Time = 6e-06

volume continuity errors : volume = 0.4378, max error = 3.39157e-07, sum local = 6.93542e-15, global = -1.5037e-18
smoothSolver:  Solving for Ux, Initial residual = 0.0365264, Final residual = 4.28805e-09, No Iterations 2
smoothSolver:  Solving for Uy, Initial residual = 0.0258632, Final residual = 3.4051e-09, No Iterations 2
smoothSolver:  Solving for Uz, Initial residual = 0.0186018, Final residual = 2.20119e-09, No Iterations 2
[0] Building level 0
[1] Building level 0
[1] Building level 1
[0] Building level 1
Reconstruction on level 1
[1] Building level 2
Creating AMGLevel 
[0] Building level 2
Reconstruction on level 2
[1] Building level 3
Creating AMGLevel 
[0] Building level 3
Reconstruction on level 3
[1] Building level 4
Creating AMGLevel 
[0] Building level 4
Reconstruction on level 4
[1] Building level 5
Creating AMGLevel 
[0] Building level 5
Reconstruction on level 5
[1] Building level 6
Creating AMGLevel 
[0] Building level 6
Reconstruction on level 6
[1] Building level 7
Creating AMGLevel 
[0] Building level 7
Reconstruction on level 7
[1] Building level 8
Creating AMGLevel 
[0] Building level 8
Reconstruction on level 8
[1] Building level 9
[1] Building level 10
Creating AMGLevel 
[0] Building level 9
Reconstruction on level 9
[1] Building level 11
[1] Building level 12
[1] Building level 13
Creating AMGLevel 
[1] Building level 14
[0] Building level 10
Reconstruction on level 10
Creating AMGLevel 
[0] Building level 11
Reconstruction on level 11
Creating AMGLevel 
[0] Building level 12
Reconstruction on level 12
Creating AMGLevel 
[0] Building level 13
Reconstruction on level 13
Creating AMGLevel 
[0] Building level 14
Reconstruction on level 14
Creating AMGLevel 
14 Level construction complete
initial dot_x = 1.22757e+15
GMRES:  Solving for topLevelCorr, Initial residual = 0.860062, Final residual = 0.939117, No Iterations 200
Iter #1 residual = 0.0257843
Iter #2 residual = 0.0107252
Iter #3 residual = 0.0049838
Iter #4 residual = 0.00283754
Iter #5 residual = 0.00178521
Iter #6 residual = 0.00120812
Iter #7 residual = 0.000895842
Iter #8 residual = 0.000658646
Iter #9 residual = 0.000505363
Iter #10 residual = 0.000463114
Iter #11 residual = 0.000418808
Iter #12 residual = 0.000301284
Iter #13 residual = 0.000440931
Iter #14 residual = 0.000224173
Iter #15 residual = 0.000350653
Iter #16 residual = 0.000151919
GPU: 16 iters: 3.49271 s: 4.08248 GB/s
GPUAMG:  Solving for p, Initial residual = 0.128505, Final residual = 9.29803e-05, No Iterations 16
[0] Building level 0
[1] Building level 0
[0] Building level 1
[1] Building level 1
[0] Building level 2
[1] Building level 2
[0] Building level 3
[1] Building level 3
[0] Building level 4
[1] Building level 4
[0] Building level 5
[1] Building level 5
[0] Building level 6
[1] Building level 6
[0] Building level 7
[0] Building level 8
[0] Building level 9
[1] Building level 7
[0] Building level 10
[0] Building level 11
[0] Building level 12
[0] Building level 13
[0] Building level 14
14 Level construction complete
[1] Building level 8
[1] Building level 9
[1] Building level 10
[1] Building level 11
[1] Building level 12
[1] Building level 13
[1] Building level 14
initial dot_x = 6.71863e+14
Iter #1 residual = 0.0127313
Iter #2 residual = 0.00519294
Iter #3 residual = 0.00242276
Iter #4 residual = 0.00146075
Iter #5 residual = 0.00100887
Iter #6 residual = 0.000667695
Iter #7 residual = 0.000694984
Iter #8 residual = 0.000370209
Iter #9 residual = 0.000293021
Iter #10 residual = 0.000229254
Iter #11 residual = 0.000222825
Iter #12 residual = 0.000139163
Iter #13 residual = 0.000214359
Iter #14 residual = 0.000107833
Iter #15 residual = 0.000104994
Iter #16 residual = 6.07091e-05
Iter #17 residual = 5.90906e-05
GPU: 17 iters: 3.66526 s: 4.13343 GB/s
GPUAMG:  Solving for p, Initial residual = 0.0501942, Final residual = 4.06139e-05, No Iterations 17
time step continuity errors : sum local = 3.97967e-09, global = 4.31744e-10, cumulative = 1.47318e-09
Moving mesh time step continuity errors : sum local = 3.97967e-09, global = 4.31744e-10, cumulative = 1.90492e-09
ExecutionTime = 448.53 s  ClockTime = 475 s

Courant Number mean: 0.0027396 max: 0.282747 velocity magnitude: 159.352
GGI pair (stator-slider, rotor-slider) : 6.21819 8.23253 Diff = 0.0100672 or 0.161899 %
Time = 7e-06

volume continuity errors : volume = 0.4378, max error = 3.67109e-07, sum local = 6.88129e-15, global = 5.88756e-20
smoothSolver:  Solving for Ux, Initial residual = 0.0281218, Final residual = 2.70168e-09, No Iterations 2
smoothSolver:  Solving for Uy, Initial residual = 0.0193978, Final residual = 1.08869e-09, No Iterations 2
smoothSolver:  Solving for Uz, Initial residual = 0.0140893, Final residual = 1.39999e-09, No Iterations 2
[0] Building level 0
[1] Building level 0
[1] Building level 1
[0] Building level 1
Reconstruction on level 1
[1] Building level 2
Creating AMGLevel 
[0] Building level 2
Reconstruction on level 2
[1] Building level 3
Creating AMGLevel 
[0] Building level 3
Reconstruction on level 3
[1] Building level 4
Creating AMGLevel 
[0] Building level 4
Reconstruction on level 4
[1] Building level 5
Creating AMGLevel 
[0] Building level 5
Reconstruction on level 5
[1] Building level 6
Creating AMGLevel 
[0] Building level 6
Reconstruction on level 6
[1] Building level 7
Creating AMGLevel 
[0] Building level 7
Reconstruction on level 7
[1] Building level 8
Creating AMGLevel 
[0] Building level 8
Reconstruction on level 8
[1] Building level 9
[1] Building level 10
[1] Building level 11
Creating AMGLevel 
[0] Building level 9
Reconstruction on level 9
[1] Building level 12
[1] Building level 13
[1] Building level 14
Creating AMGLevel 
[0] Building level 10
Reconstruction on level 10
Creating AMGLevel 
[0] Building level 11
Reconstruction on level 11
Creating AMGLevel 
[0] Building level 12
Reconstruction on level 12
Creating AMGLevel 
[0] Building level 13
Reconstruction on level 13
Creating AMGLevel 
[0] Building level 14
Reconstruction on level 14
Creating AMGLevel 
14 Level construction complete
initial dot_x = 5.1451e+14
Iter #1 residual = 0.0287787
Iter #2 residual = 0.0138284
Iter #3 residual = 0.00764172
Iter #4 residual = 0.00472118
Iter #5 residual = 0.00310315
Iter #6 residual = 0.00206657
Iter #7 residual = 0.00159322
Iter #8 residual = 0.00106389
Iter #9 residual = 0.00119323
Iter #10 residual = 0.000589102
Iter #11 residual = 0.000498945
Iter #12 residual = 0.000342458
Iter #13 residual = 0.000438257
Iter #14 residual = 0.000233599
Iter #15 residual = 0.000278685
Iter #16 residual = 0.00016188
Iter #17 residual = 0.000250636
Iter #18 residual = 0.000143512
GPU: 18 iters: 3.86726 s: 4.14797 GB/s
GPUAMG:  Solving for p, Initial residual = 0.112158, Final residual = 9.1618e-05, No Iterations 18
[0] Building level 0
[1] Building level 0
[1] Building level 1
[0] Building level 1
[1] Building level 2
[0] Building level 2
[0] Building level 3
[1] Building level 3
[0] Building level 4
[1] Building level 4
[0] Building level 5
[1] Building level 5
[0] Building level 6
[1] Building level 6
[0] Building level 7
[1] Building level 7
[0] Building level 8
[1] Building level 8
[0] Building level 9
[1] Building level 9
[0] Building level 10
[0] Building level 11
[1] Building level 10
[0] Building level 12
[0] Building level 13
[0] Building level 14
[1] Building level 11
14 Level construction complete
[1] Building level 12
[1] Building level 13
[1] Building level 14
initial dot_x = 2.9328e+15
Iter #1 residual = 0.019725
Iter #2 residual = 0.00769236
Iter #3 residual = 0.00537173
Iter #4 residual = 0.00298661
Iter #5 residual = 0.00430565
Iter #6 residual = 0.00178419
Iter #7 residual = 0.00156486
Iter #8 residual = 0.000760592
Iter #9 residual = 0.000675276
Iter #10 residual = 0.000395107
Iter #11 residual = 0.000360183
Iter #12 residual = 0.00022607
Iter #13 residual = 0.000299962
Iter #14 residual = 0.000157399
Iter #15 residual = 0.000205334
Iter #16 residual = 9.85668e-05
Iter #17 residual = 7.83245e-05
Iter #18 residual = 5.18337e-05
Iter #19 residual = 5.14019e-05
GPU: 19 iters: 4.02552 s: 4.20628 GB/s
GPUAMG:  Solving for p, Initial residual = 0.046308, Final residual = 3.37529e-05, No Iterations 19
time step continuity errors : sum local = 2.85872e-09, global = -1.49729e-10, cumulative = 1.75519e-09
Moving mesh time step continuity errors : sum local = 2.85872e-09, global = -1.49729e-10, cumulative = 1.60546e-09
ExecutionTime = 509.55 s  ClockTime = 537 s

Courant Number mean: 0.00272982 max: 0.277096 velocity magnitude: 159.676
GGI pair (stator-slider, rotor-slider) : 6.25171 8.05613 Diff = 0.00990607 or 0.158454 %
Time = 8e-06

volume continuity errors : volume = 0.4378, max error = 3.70593e-07, sum local = 6.84127e-15, global = -1.08745e-18
smoothSolver:  Solving for Ux, Initial residual = 0.016724, Final residual = 1.79765e-09, No Iterations 2
smoothSolver:  Solving for Uy, Initial residual = 0.0127434, Final residual = 8.17861e-10, No Iterations 2
smoothSolver:  Solving for Uz, Initial residual = 0.0100393, Final residual = 9.1923e-10, No Iterations 2
[0] Building level 0
[1] Building level 0
[1] Building level 1
[0] Building level 1
Reconstruction on level 1
[1] Building level 2
[1] Building level 3
Creating AMGLevel 
[0] Building level 2
Reconstruction on level 2
[1] Building level 4
[1] Building level 5
[1] Building level 6
Creating AMGLevel 
[1] Building level 7
[0] Building level 3
Reconstruction on level 3
[1] Building level 8
[1] Building level 9
[1] Building level 10
[1] Building level 11
[1] Building level 12
[1] Building level 13
[1] Building level 14
Creating AMGLevel 
[0] Building level 4
Reconstruction on level 4
Creating AMGLevel 
[0] Building level 5
Reconstruction on level 5
Creating AMGLevel 
[0] Building level 6
Reconstruction on level 6
Creating AMGLevel 
[0] Building level 7
Reconstruction on level 7
Creating AMGLevel 
[0] Building level 8
Reconstruction on level 8
Creating AMGLevel 
[0] Building level 9
Reconstruction on level 9
Creating AMGLevel 
[0] Building level 10
Reconstruction on level 10
Creating AMGLevel 
[0] Building level 11
Reconstruction on level 11
Creating AMGLevel 
[0] Building level 12
Reconstruction on level 12
Creating AMGLevel 
[0] Building level 13
Reconstruction on level 13
Creating AMGLevel 
[0] Building level 14
Reconstruction on level 14
Creating AMGLevel 
14 Level construction complete
initial dot_x = 1.02199e+15
Iter #1 residual = 0.0255454
Iter #2 residual = 0.0121633
Iter #3 residual = 0.00670124
Iter #4 residual = 0.00414629
Iter #5 residual = 0.00297408
Iter #6 residual = 0.00189705
Iter #7 residual = 0.00169107
Iter #8 residual = 0.000932922
Iter #9 residual = 0.00118547
Iter #10 residual = 0.0005596
Iter #11 residual = 0.000352763
Iter #12 residual = 0.000264505
Iter #13 residual = 0.000230038
Iter #14 residual = 0.000167896
Iter #15 residual = 0.00019308
Iter #16 residual = 0.000123626
Iter #17 residual = 0.000200224
GPU: 17 iters: 3.689 s: 4.10683 GB/s
GPUAMG:  Solving for p, Initial residual = 0.100824, Final residual = 0.000100781, No Iterations 17
[0] Building level 0
[1] Building level 0
[1] Building level 1
[0] Building level 1
[0] Building level 2
[1] Building level 2
[1] Building level 3
[0] Building level 3
[1] Building level 4
[0] Building level 4
[1] Building level 5
[0] Building level 5
[1] Building level 6
[0] Building level 6
[1] Building level 7
[0] Building level 7
[1] Building level 8
[0] Building level 8
[1] Building level 9
[0] Building level 9
[1] Building level 10
[0] Building level 10
[1] Building level 11
[1] Building level 12
[0] Building level 11
[1] Building level 13
[1] Building level 14
[0] Building level 12
[0] Building level 13
[0] Building level 14
14 Level construction complete
initial dot_x = 1.82608e+14
Iter #1 residual = 0.0205471
Iter #2 residual = 0.00806128
Iter #3 residual = 0.0048304
Iter #4 residual = 0.00298777
Iter #5 residual = 0.00218209
Iter #6 residual = 0.00191727
Iter #7 residual = 0.00122301
Iter #8 residual = 0.00151052
Iter #9 residual = 0.000795767
Iter #10 residual = 0.00142052
Iter #11 residual = 0.000616871
Iter #12 residual = 0.000393118
Iter #13 residual = 0.00028173
Iter #14 residual = 0.000243315
Iter #15 residual = 0.000176801
Iter #16 residual = 0.000166163
Iter #17 residual = 0.000143905
Iter #18 residual = 0.000125197
Iter #19 residual = 0.00010854
Iter #20 residual = 8.95025e-05
Iter #21 residual = 8.50912e-05
Iter #22 residual = 6.25459e-05
Iter #23 residual = 5.26888e-05
Iter #24 residual = 4.84518e-05
GPU: 24 iters: 5.1159 s: 4.18076 GB/s
GPUAMG:  Solving for p, Initial residual = 0.043903, Final residual = 4.10415e-05, No Iterations 24
time step continuity errors : sum local = 3.06663e-09, global = -3.31691e-10, cumulative = 1.27377e-09
Moving mesh time step continuity errors : sum local = 3.06663e-09, global = -3.31691e-10, cumulative = 9.4208e-10
ExecutionTime = 571.5 s  ClockTime = 599 s

Courant Number mean: 0.00273019 max: 0.274283 velocity magnitude: 160.05
GGI pair (stator-slider, rotor-slider) : 6.35829 8.0442 Diff = 0.00987594 or 0.155324 %
Time = 9e-06

volume continuity errors : volume = 0.4378, max error = 3.38546e-07, sum local = 6.82906e-15, global = -9.20131e-19
smoothSolver:  Solving for Ux, Initial residual = 0.0116381, Final residual = 1.4155e-09, No Iterations 2
smoothSolver:  Solving for Uy, Initial residual = 0.00911334, Final residual = 9.11897e-10, No Iterations 2
smoothSolver:  Solving for Uz, Initial residual = 0.00992581, Final residual = 7.24758e-10, No Iterations 2
[0] Building level 0
[1] Building level 0
[1] Building level 1
[0] Building level 1
Reconstruction on level 1
[1] Building level 2
Creating AMGLevel 
[0] Building level 2
Reconstruction on level 2
Creating AMGLevel 
[0] Building level 3
Reconstruction on level 3
[1] Building level 3
Creating AMGLevel 
[0] Building level 4
Reconstruction on level 4
[1] Building level 4
Creating AMGLevel 
[0] Building level 5
Reconstruction on level 5
[1] Building level 5
Creating AMGLevel 
[0] Building level 6
Reconstruction on level 6
[1] Building level 6
Creating AMGLevel 
[0] Building level 7
Reconstruction on level 7
[1] Building level 7
Creating AMGLevel 
[0] Building level 8
Reconstruction on level 8
[1] Building level 8
Creating AMGLevel 
[0] Building level 9
Reconstruction on level 9
Creating AMGLevel 
[0] Building level 10
Reconstruction on level 10
[1] Building level 9
Creating AMGLevel 
[0] Building level 11
Reconstruction on level 11
Creating AMGLevel 
[0] Building level 12
Reconstruction on level 12
Creating AMGLevel 
[0] Building level 13
Reconstruction on level 13
Creating AMGLevel 
[0] Building level 14
Reconstruction on level 14
[1] Building level 10
Creating AMGLevel 
14 Level construction complete
[1] Building level 11
[1] Building level 12
[1] Building level 13
[1] Building level 14
initial dot_x = 3.76507e+15
Iter #1 residual = 0.0162928
Iter #2 residual = 0.00747697
Iter #3 residual = 0.00387145
Iter #4 residual = 0.00243673
Iter #5 residual = 0.00150684
Iter #6 residual = 0.001097
Iter #7 residual = 0.00070439
Iter #8 residual = 0.000581422
Iter #9 residual = 0.000397947
Iter #10 residual = 0.000364104
Iter #11 residual = 0.000288455
Iter #12 residual = 0.000229013
Iter #13 residual = 0.000203737
Iter #14 residual = 0.000214609
Iter #15 residual = 0.000146361
Iter #16 residual = 0.000136515
Iter #17 residual = 0.000116821
Iter #18 residual = 0.000104687
Iter #19 residual = 0.000120144
Iter #20 residual = 9.83168e-05
Iter #21 residual = 8.58662e-05
GPU: 21 iters: 4.68148 s: 3.99763 GB/s
GPUAMG:  Solving for p, Initial residual = 0.0791564, Final residual = 7.63678e-05, No Iterations 21
[0] Building level 0
[1] Building level 0
[0] Building level 1
[1] Building level 1
[0] Building level 2
[1] Building level 2
[0] Building level 3
[1] Building level 3
[0] Building level 4
[1] Building level 4
[0] Building level 5
[1] Building level 5
[0] Building level 6
[1] Building level 6
[0] Building level 7
[0] Building level 8
[1] Building level 7
[0] Building level 9
[0] Building level 10
[0] Building level 11
[0] Building level 12
[0] Building level 13
[1] Building level 8
[0] Building level 14
14 Level construction complete
[1] Building level 9
[1] Building level 10
[1] Building level 11
[1] Building level 12
[1] Building level 13
[1] Building level 14
initial dot_x = 1.43983e+15
Iter #1 residual = 0.0119275
Iter #2 residual = 0.00467292
Iter #3 residual = 0.00277626
Iter #4 residual = 0.00185084
Iter #5 residual = 0.0014473
Iter #6 residual = 0.00106817
Iter #7 residual = 0.000760666
Iter #8 residual = 0.000765506
Iter #9 residual = 0.000495291
Iter #10 residual = 0.000626432
Iter #11 residual = 0.000331333
Iter #12 residual = 0.0004477
Iter #13 residual = 0.00022733
Iter #14 residual = 0.0001699
Iter #15 residual = 0.000109617
Iter #16 residual = 9.87532e-05
Iter #17 residual = 6.22426e-05
Iter #18 residual = 5.4197e-05
Iter #19 residual = 3.94066e-05
GPU: 19 iters: 4.13327 s: 4.09662 GB/s
GPUAMG:  Solving for p, Initial residual = 0.0343955, Final residual = 3.2139e-05, No Iterations 19
time step continuity errors : sum local = 2.17247e-09, global = 2.1063e-10, cumulative = 1.15271e-09
Moving mesh time step continuity errors : sum local = 2.17247e-09, global = 2.1063e-10, cumulative = 1.36334e-09
ExecutionTime = 633.62 s  ClockTime = 663 s

Courant Number mean: 0.00273406 max: 0.273053 velocity magnitude: 160.271
GGI pair (stator-slider, rotor-slider) : 6.48142 8.0894 Diff = 0.00998503 or 0.154056 %
Time = 1e-05

volume continuity errors : volume = 0.4378, max error = 2.82957e-07, sum local = 6.82901e-15, global = -1.57534e-18
smoothSolver:  Solving for Ux, Initial residual = 0.0108146, Final residual = 1.21632e-09, No Iterations 2
smoothSolver:  Solving for Uy, Initial residual = 0.00838863, Final residual = 8.99845e-10, No Iterations 2
smoothSolver:  Solving for Uz, Initial residual = 0.00943394, Final residual = 6.24423e-10, No Iterations 2
[0] Building level 0
[1] Building level 0
[1] Building level 1
[0] Building level 1
Reconstruction on level 1
Creating AMGLevel 
[1] Building level 2
[0] Building level 2
Reconstruction on level 2
Creating AMGLevel 
[1] Building level 3
[0] Building level 3
Reconstruction on level 3
[1] Building level 4
Creating AMGLevel 
[0] Building level 4
Reconstruction on level 4
[1] Building level 5
Creating AMGLevel 
[0] Building level 5
Reconstruction on level 5
[1] Building level 6
Creating AMGLevel 
[0] Building level 6
Reconstruction on level 6
[1] Building level 7
Creating AMGLevel 
[0] Building level 7
Reconstruction on level 7
[1] Building level 8
Creating AMGLevel 
[0] Building level 8
Reconstruction on level 8
[1] Building level 9
Creating AMGLevel 
[0] Building level 9
Reconstruction on level 9
[1] Building level 10
[1] Building level 11
Creating AMGLevel 
[1] Building level 12
[0] Building level 10
Reconstruction on level 10
[1] Building level 13
[1] Building level 14
Creating AMGLevel 
[0] Building level 11
Reconstruction on level 11
Creating AMGLevel 
[0] Building level 12
Reconstruction on level 12
Creating AMGLevel 
[0] Building level 13
Reconstruction on level 13
Creating AMGLevel 
[0] Building level 14
Reconstruction on level 14
Creating AMGLevel 
14 Level construction complete
initial dot_x = 4.28337e+15
Iter #1 residual = 0.00859326
Iter #2 residual = 0.00317185
Iter #3 residual = 0.00143828
Iter #4 residual = 0.000757432
Iter #5 residual = 0.000459357
Iter #6 residual = 0.000288199
Iter #7 residual = 0.000209367
Iter #8 residual = 0.000132109
Iter #9 residual = 0.0001325
Iter #10 residual = 7.72294e-05
GPU: 10 iters: 2.28525 s: 3.89971 GB/s
GPUAMG:  Solving for p, Initial residual = 0.0618206, Final residual = 6.07034e-05, No Iterations 10
[0] Building level 0
[1] Building level 0
[1] Building level 1
[0] Building level 1
[1] Building level 2
[0] Building level 2
[1] Building level 3
[0] Building level 3
[1] Building level 4
[0] Building level 4
[1] Building level 5
[0] Building level 5
[1] Building level 6
[0] Building level 6
[1] Building level 7
[0] Building level 7
[1] Building level 8
[0] Building level 8
[1] Building level 9
[1] Building level 10
[0] Building level 9
[1] Building level 11
[1] Building level 12
[1] Building level 13
[1] Building level 14
[0] Building level 10
[0] Building level 11
[0] Building level 12
[0] Building level 13
[0] Building level 14
14 Level construction complete
initial dot_x = 4.01702e+15
Iter #1 residual = 0.00545183
Iter #2 residual = 0.00204577
Iter #3 residual = 0.00110711
Iter #4 residual = 0.000718748
Iter #5 residual = 0.000526799
Iter #6 residual = 0.00046273
Iter #7 residual = 0.000305011
Iter #8 residual = 0.00036732
Iter #9 residual = 0.000208073
Iter #10 residual = 0.000273573
Iter #11 residual = 0.00014739
Iter #12 residual = 0.000238738
Iter #13 residual = 0.000109945
Iter #14 residual = 0.000133749
Iter #15 residual = 6.63551e-05
Iter #16 residual = 8.52286e-05
Iter #17 residual = 4.00539e-05
Iter #18 residual = 2.93375e-05
GPU: 18 iters: 3.73726 s: 4.29226 GB/s
GPUAMG:  Solving for p, Initial residual = 0.0237791, Final residual = 2.02492e-05, No Iterations 18
time step continuity errors : sum local = 1.26206e-09, global = 8.2682e-11, cumulative = 1.44602e-09
Moving mesh time step continuity errors : sum local = 1.26206e-09, global = 8.2682e-11, cumulative = 1.5287e-09
ExecutionTime = 723.17 s  ClockTime = 766 s

GGI pair (stator-slider, rotor-slider) : 6.58849 9.00462 Diff = 0.0101142 or 0.153514 %
End

Finalising parallel run
