 Data for JOB [55319,1] offset 0

 ========================   JOB MAP   ========================

 Data for node: ivb106	Num slots: 4	Max slots: 0	Num procs: 4
 	Process OMPI jobid: [55319,1] App: 0 Process rank: 0
 	Process OMPI jobid: [55319,1] App: 0 Process rank: 1
 	Process OMPI jobid: [55319,1] App: 0 Process rank: 2
 	Process OMPI jobid: [55319,1] App: 0 Process rank: 3

 =============================================================
[ivb106:21381] MCW rank 2 bound to socket 0[core 2[hwt 0]]: [././B/././././././.][./././././././././.]
[ivb106:21381] MCW rank 3 bound to socket 0[core 3[hwt 0]]: [./././B/./././././.][./././././././././.]
[ivb106:21381] MCW rank 0 bound to socket 0[core 0[hwt 0]]: [B/././././././././.][./././././././././.]
[ivb106:21381] MCW rank 1 bound to socket 0[core 1[hwt 0]]: [./B/./././././././.][./././././././././.]
1
0
2
3
/*---------------------------------------------------------------------------*\
| =========                 |                                                 |
| \\      /  F ield         | foam-extend: Open Source CFD                    |
|  \\    /   O peration     | Version:     3.1                                |
|   \\  /    A nd           | Web:         http://www.extend-project.de       |
|    \\/     M anipulation  |                                                 |
\*---------------------------------------------------------------------------*/
Build    : 3.1-e2da948002a2
Exec     : interFoam -parallel
Date     : May 21 2016
Time     : 07:16:57
Host     : ivb106
PID      : 21420
CtrlDict : /home-2/vplatonov/foam/foam-extend-3.1/etc/controlDict
Case     : /home/vplatonov/tests/rt12mln
nProcs   : 4
Slaves : 
3
(
ivb106.21425
ivb106.21415
ivb106.21416
)

Pstream initialized with:
    floatTransfer     : 0
    nProcsSimpleSum   : 0
    commsType         : blocking
SigFpe   : Enabling floating point exception trapping (FOAM_SIGFPE).

// * * * * * * * * * * * * * * * * * * * * * * * * * * * * * * * * * * * * * //
Create time

Create mesh for time = 0


Reading g
Reading field pd

Reading field alpha1

Reading field U

Reading/calculating face flux field phi

Reading transportProperties

Selecting incompressible transport model Newtonian
Selecting incompressible transport model Newtonian
Calculating field g.h

Selecting turbulence model type laminar
time step continuity errors : sum local = 0, global = 0, cumulative = 0
Created persistent data with name pcorr
GPUAMG:  Solving for pcorr, Initial residual = 0, Final residual = 0, No Iterations 0
time step continuity errors : sum local = 0, global = 0, cumulative = 0
Courant Number mean: 0 max: 0 velocity magnitude: 0

Starting time loop

Courant Number mean: 0 max: 0 velocity magnitude: 0
Time = 0.001

MULES: Solving for alpha1
Liquid phase volume fraction = 0.00275421  Min(alpha1) = 0  Max(alpha1) = 1
MULES: Solving for alpha1
Liquid phase volume fraction = 0.00275421  Min(alpha1) = 0  Max(alpha1) = 1
Created persistent data with name pd
[1] Building level 0
[2] Building level 0
[3] Building level 0
[0] Building level 0
Creating AMGLevel 
[1] Building level 1
[0] Building level 1
[3] Building level 1
[2] Building level 1
[1] Building level 2
Creating AMGLevel 
[2] Building level 2
[0] Building level 2
[3] Building level 2
[1] Building level 3
Creating AMGLevel 
[0] Building level 3
[3] Building level 3
[2] Building level 3
Creating AMGLevel 
[0] Building level 4
[1] Building level 4
[2] Building level 4
[3] Building level 4
Creating AMGLevel 
[0] Building level 5
[2] Building level 5
[1] Building level 5
[3] Building level 5
Creating AMGLevel 
[0] Building level 6
[2] Building level 6
[1] Building level 6
[3] Building level 6
Creating AMGLevel 
[0] Building level 7
[2] Building level 7
[1] Building level 7
[3] Building level 7
Creating AMGLevel 
[0] Building level 8
[1] Building level 8
[2] Building level 8
Creating AMGLevel 
[0] Building level 9
[1] Building level 9
Creating AMGLevel 
[0] Building level 10
[3] Building level 8
[2] Building level 9
Creating AMGLevel 
[0] Building level 11
[1] Building level 10
Creating AMGLevel 
[0] Building level 12
[2] Building level 10
Creating AMGLevel 
[0] Building level 13
[1] Building level 11
Creating AMGLevel 
[0] Building level 14
Creating AMGLevel 
14 Level construction complete
[2] Building level 11
[1] Building level 12
[3] Building level 9
[1] Building level 13
[2] Building level 12
[1] Building level 14
[2] Building level 13
[2] Building level 14
[3] Building level 10
[3] Building level 11
[3] Building level 12
[3] Building level 13
[3] Building level 14
initial dot_x = 0
Iter #1 residual = 0.0732925
GPU: 1 iters: 0.530048 s: 1.23468 GB/s
GPUAMG:  Solving for pd, Initial residual = 1, Final residual = 0.0271103, No Iterations 1
[2] Building level 0
[1] Building level 0
[3] Building level 0
[0] Building level 0
[2] Building level 1
[3] Building level 1
[0] Building level 1
[1] Building level 1
[2] Building level 2
[0] Building level 2
[3] Building level 2
[1] Building level 2
[0] Building level 3
[2] Building level 3
[3] Building level 3
[1] Building level 3
[2] Building level 4
[0] Building level 4
[3] Building level 4
[1] Building level 4
[2] Building level 5
[0] Building level 5
[3] Building level 5
[1] Building level 5
[2] Building level 6
[0] Building level 6
[1] Building level 6
[3] Building level 6
[2] Building level 7
[0] Building level 7
[2] Building level 8
[1] Building level 7
[3] Building level 7
[2] Building level 9
[0] Building level 8
[2] Building level 10
[2] Building level 11
[2] Building level 12
[2] Building level 13
[2] Building level 14
[1] Building level 8
[0] Building level 9
[3] Building level 8
[0] Building level 10
[1] Building level 9
[0] Building level 11
[0] Building level 12
[3] Building level 9
[0] Building level 13
[0] Building level 14
14 Level construction complete
[1] Building level 10
[3] Building level 10
[1] Building level 11
[1] Building level 12
[1] Building level 13
[3] Building level 11
[1] Building level 14
[3] Building level 12
[3] Building level 13
[3] Building level 14
initial dot_x = 75617.1
Iter #1 residual = 0.00835599
Iter #2 residual = 0.00430118
Iter #3 residual = 0.00229677
Iter #4 residual = 0.00122675
GPU: 4 iters: 1.30638 s: 2.00383 GB/s
GPUAMG:  Solving for pd, Initial residual = 0.019502, Final residual = 0.000642592, No Iterations 4
[2] Building level 0
[3] Building level 0
[1] Building level 0
[0] Building level 0
[2] Building level 1
[3] Building level 1
[0] Building level 1
[1] Building level 1
[2] Building level 2
[0] Building level 2
[1] Building level 2
[3] Building level 2
[0] Building level 3
[2] Building level 3
[1] Building level 3
[3] Building level 3
[2] Building level 4
[1] Building level 4
[0] Building level 4
[3] Building level 4
[2] Building level 5
[1] Building level 5
[0] Building level 5
[3] Building level 5
[2] Building level 6
[1] Building level 6
[0] Building level 6
[3] Building level 6
[2] Building level 7
[1] Building level 7
[0] Building level 7
[2] Building level 8
[3] Building level 7
[1] Building level 8
[2] Building level 9
[0] Building level 8
[1] Building level 9
[2] Building level 10
[1] Building level 10
[2] Building level 11
[2] Building level 12
[1] Building level 11
[2] Building level 13
[2] Building level 14
[0] Building level 9
[1] Building level 12
[3] Building level 8
[1] Building level 13
[1] Building level 14
[0] Building level 10
[0] Building level 11
[0] Building level 12
[3] Building level 9
[0] Building level 13
[0] Building level 14
14 Level construction complete
[3] Building level 10
[3] Building level 11
[3] Building level 12
[3] Building level 13
[3] Building level 14
initial dot_x = 128238
Iter #1 residual = 0.00249748
Iter #2 residual = 0.00114306
Iter #3 residual = 0.000554389
Iter #4 residual = 0.000276843
Iter #5 residual = 0.000144368
Iter #6 residual = 8.17415e-05
Iter #7 residual = 5.00819e-05
Iter #8 residual = 3.09088e-05
Iter #9 residual = 1.97517e-05
Iter #10 residual = 1.27321e-05
Iter #11 residual = 8.40287e-06
Iter #12 residual = 5.64172e-06
Iter #13 residual = 3.86149e-06
Iter #14 residual = 2.72126e-06
Iter #15 residual = 2.00766e-06
Iter #16 residual = 1.51323e-06
Iter #17 residual = 1.17583e-06
Iter #18 residual = 9.28317e-07
Iter #19 residual = 7.37307e-07
Iter #20 residual = 5.97105e-07
Iter #21 residual = 4.77789e-07
Iter #22 residual = 3.95537e-07
Iter #23 residual = 3.16045e-07
Iter #24 residual = 2.6768e-07
Iter #25 residual = 2.11472e-07
Iter #26 residual = 1.8761e-07
Iter #27 residual = 1.41284e-07
Iter #28 residual = 1.36729e-07
GPU: 28 iters: 7.58251 s: 2.41665 GB/s
GPUAMG:  Solving for pd, Initial residual = 0.00621868, Final residual = 9.48131e-08, No Iterations 28
time step continuity errors : sum local = 7.04189e-12, global = 4.94378e-25, cumulative = 4.94378e-25
ExecutionTime = 91.36 s  ClockTime = 101 s

Courant Number mean: 4.8759e-06 max: 0.00216224 velocity magnitude: 0.033785
Time = 0.002

MULES: Solving for alpha1
Liquid phase volume fraction = 0.00275421  Min(alpha1) = 0  Max(alpha1) = 1
MULES: Solving for alpha1
Liquid phase volume fraction = 0.00275421  Min(alpha1) = 0  Max(alpha1) = 1
[2] Building level 0
[1] Building level 0
[0] Building level 0
[3] Building level 0
[2] Building level 1
[3] Building level 1
[0] Building level 1
Reconstruction on level 1
[1] Building level 1
Creating AMGLevel 
[0] Building level 2
Reconstruction on level 2
[2] Building level 2
[1] Building level 2
[3] Building level 2
Creating AMGLevel 
[0] Building level 3
Reconstruction on level 3
[1] Building level 3
[3] Building level 3
[2] Building level 3
[1] Building level 4
Creating AMGLevel 
[0] Building level 4
Reconstruction on level 4
[3] Building level 4
[2] Building level 4
[1] Building level 5
Creating AMGLevel 
[0] Building level 5
Reconstruction on level 5
[3] Building level 5
[2] Building level 5
[1] Building level 6
Creating AMGLevel 
[0] Building level 6
Reconstruction on level 6
[3] Building level 6
[1] Building level 7
[2] Building level 6
[1] Building level 8
Creating AMGLevel 
[0] Building level 7
Reconstruction on level 7
[1] Building level 9
[3] Building level 7
[1] Building level 10
Creating AMGLevel 
[0] Building level 8
Reconstruction on level 8
[1] Building level 11
[1] Building level 12
[1] Building level 13
[1] Building level 14
[2] Building level 7
Creating AMGLevel 
[0] Building level 9
Reconstruction on level 9
[3] Building level 8
Creating AMGLevel 
[0] Building level 10
Reconstruction on level 10
Creating AMGLevel 
[0] Building level 11
Reconstruction on level 11
Creating AMGLevel 
[0] Building level 12
Reconstruction on level 12
[3] Building level 9
Creating AMGLevel 
[0] Building level 13
Reconstruction on level 13
[2] Building level 8
Creating AMGLevel 
[0] Building level 14
Reconstruction on level 14
Creating AMGLevel 
14 Level construction complete
[3] Building level 10
[3] Building level 11
[2] Building level 9
[3] Building level 12
[3] Building level 13
[3] Building level 14
[2] Building level 10
[2] Building level 11
[2] Building level 12
[2] Building level 13
[2] Building level 14
initial dot_x = 114344
Iter #1 residual = 0.000818249
Iter #2 residual = 0.000405948
Iter #3 residual = 0.000223659
GPU: 3 iters: 1.01197 s: 1.94008 GB/s
GPUAMG:  Solving for pd, Initial residual = 0.00335943, Final residual = 0.000128913, No Iterations 3
[3] Building level 0
[1] Building level 0
[2] Building level 0
[0] Building level 0
[2] Building level 1
[0] Building level 1
[3] Building level 1
[1] Building level 1
[0] Building level 2
[2] Building level 2
[3] Building level 2
[1] Building level 2
[0] Building level 3
[2] Building level 3
[3] Building level 3
[1] Building level 3
[0] Building level 4
[1] Building level 4
[2] Building level 4
[3] Building level 4
[0] Building level 5
[1] Building level 5
[2] Building level 5
[0] Building level 6
[3] Building level 5
[0] Building level 7
[1] Building level 6
[0] Building level 8
[0] Building level 9
[2] Building level 6
[0] Building level 10
[0] Building level 11
[1] Building level 7
[0] Building level 12
[0] Building level 13
[0] Building level 14
14 Level construction complete
[3] Building level 6
[1] Building level 8
[1] Building level 9
[2] Building level 7
[1] Building level 10
[1] Building level 11
[1] Building level 12
[1] Building level 13
[1] Building level 14
[3] Building level 7
[2] Building level 8
[2] Building level 9
[2] Building level 10
[3] Building level 8
[2] Building level 11
[2] Building level 12
[2] Building level 13
[2] Building level 14
[3] Building level 9
[3] Building level 10
[3] Building level 11
[3] Building level 12
[3] Building level 13
[3] Building level 14
initial dot_x = 117444
Iter #1 residual = 0.00055614
Iter #2 residual = 0.000271076
Iter #3 residual = 0.000137029
GPU: 3 iters: 1.02117 s: 1.92262 GB/s
GPUAMG:  Solving for pd, Initial residual = 0.00211746, Final residual = 7.19545e-05, No Iterations 3
[2] Building level 0
[3] Building level 0
[0] Building level 0
[1] Building level 0
[2] Building level 1
[0] Building level 1
[3] Building level 1
[1] Building level 1
[0] Building level 2
[2] Building level 2
[3] Building level 2
[1] Building level 2
[0] Building level 3
[2] Building level 3
[3] Building level 3
[1] Building level 3
[0] Building level 4
[1] Building level 4
[2] Building level 4
[3] Building level 4
[0] Building level 5
[1] Building level 5
[2] Building level 5
[0] Building level 6
[3] Building level 5
[0] Building level 7
[1] Building level 6
[0] Building level 8
[0] Building level 9
[2] Building level 6
[0] Building level 10
[0] Building level 11
[1] Building level 7
[0] Building level 12
[0] Building level 13
[0] Building level 14
14 Level construction complete
[3] Building level 6
[1] Building level 8
[1] Building level 9
[2] Building level 7
[1] Building level 10
[1] Building level 11
[1] Building level 12
[1] Building level 13
[1] Building level 14
[3] Building level 7
[2] Building level 8
[2] Building level 9
[2] Building level 10
[2] Building level 11
[3] Building level 8
[2] Building level 12
[2] Building level 13
[2] Building level 14
[3] Building level 9
[3] Building level 10
[3] Building level 11
[3] Building level 12
[3] Building level 13
[3] Building level 14
initial dot_x = 114225
Iter #1 residual = 0.000845332
Iter #2 residual = 0.000533692
Iter #3 residual = 0.000294084
Iter #4 residual = 0.000174133
Iter #5 residual = 0.000107587
Iter #6 residual = 8.4127e-05
Iter #7 residual = 5.85558e-05
Iter #8 residual = 4.66346e-05
Iter #9 residual = 3.86625e-05
Iter #10 residual = 3.12339e-05
Iter #11 residual = 2.4741e-05
Iter #12 residual = 2.05155e-05
Iter #13 residual = 1.7061e-05
Iter #14 residual = 1.45504e-05
Iter #15 residual = 1.06401e-05
Iter #16 residual = 8.20651e-06
Iter #17 residual = 6.8497e-06
Iter #18 residual = 5.6461e-06
Iter #19 residual = 4.02838e-06
Iter #20 residual = 2.32042e-06
Iter #21 residual = 1.53536e-06
Iter #22 residual = 1.03385e-06
Iter #23 residual = 7.78306e-07
Iter #24 residual = 5.38727e-07
Iter #25 residual = 3.43206e-07
Iter #26 residual = 2.36572e-07
Iter #27 residual = 2.01201e-07
Iter #28 residual = 1.20415e-07
Iter #29 residual = 1.28596e-07
GPU: 29 iters: 7.65408 s: 2.47955 GB/s
GPUAMG:  Solving for pd, Initial residual = 0.00192877, Final residual = 5.3043e-08, No Iterations 29
time step continuity errors : sum local = 2.54074e-12, global = -5.45797e-25, cumulative = -5.14188e-26
ExecutionTime = 150.68 s  ClockTime = 162 s

Courant Number mean: 7.67659e-06 max: 0.00313308 velocity magnitude: 0.0489543
Time = 0.003

MULES: Solving for alpha1
Liquid phase volume fraction = 0.00275421  Min(alpha1) = -1.52802e-30  Max(alpha1) = 1
MULES: Solving for alpha1
Liquid phase volume fraction = 0.00275421  Min(alpha1) = -1.37183e-29  Max(alpha1) = 1
[1] Building level 0
[2] Building level 0
[3] Building level 0
[0] Building level 0
[2] Building level 1
[3] Building level 1
[0] Building level 1
[1] Building level 1
[0] Building level 2
Reconstruction on level 2
[2] Building level 2
[1] Building level 2
[1] Building level 3
[1] Building level 4
Creating AMGLevel 
[0] Building level 3
Reconstruction on level 3
[2] Building level 3
[1] Building level 5
[1] Building level 6
[3] Building level 2
Creating AMGLevel 
[0] Building level 4
Reconstruction on level 4
[2] Building level 4
[1] Building level 7
[1] Building level 8
[1] Building level 9
[1] Building level 10
[1] Building level 11
[1] Building level 12
[1] Building level 13
[1] Building level 14
Creating AMGLevel 
[0] Building level 5
Reconstruction on level 5
[2] Building level 5
Creating AMGLevel 
[0] Building level 6
Reconstruction on level 6
[3] Building level 3
[2] Building level 6
Creating AMGLevel 
[0] Building level 7
Reconstruction on level 7
[2] Building level 7
Creating AMGLevel 
[0] Building level 8
Reconstruction on level 8
Creating AMGLevel 
[0] Building level 9
Reconstruction on level 9
Creating AMGLevel 
[0] Building level 10
Reconstruction on level 10
[2] Building level 8
Creating AMGLevel 
[0] Building level 11
Reconstruction on level 11
Creating AMGLevel 
[0] Building level 12
Reconstruction on level 12
Creating AMGLevel 
[0] Building level 13
Reconstruction on level 13
Creating AMGLevel 
[0] Building level 14
Reconstruction on level 14
Creating AMGLevel 
14 Level construction complete
[2] Building level 9
[2] Building level 10
[2] Building level 11
[2] Building level 12
[2] Building level 13
[2] Building level 14
[3] Building level 4
[3] Building level 5
[3] Building level 6
[3] Building level 7
[3] Building level 8
[3] Building level 9
[3] Building level 10
[3] Building level 11
[3] Building level 12
[3] Building level 13
[3] Building level 14
initial dot_x = 113253
Iter #1 residual = 0.00213405
Iter #2 residual = 0.00123176
Iter #3 residual = 0.000701867
Iter #4 residual = 0.00042332
Iter #5 residual = 0.00024285
GPU: 5 iters: 1.50379 s: 2.17596 GB/s
GPUAMG:  Solving for pd, Initial residual = 0.00424336, Final residual = 0.000166248, No Iterations 5
[1] Building level 0
[3] Building level 0
[2] Building level 0
[0] Building level 0
[3] Building level 1
[0] Building level 1
[2] Building level 1
[1] Building level 1
[0] Building level 2
[3] Building level 2
[2] Building level 2
[1] Building level 2
[0] Building level 3
[3] Building level 3
[1] Building level 3
[2] Building level 3
[0] Building level 4
[1] Building level 4
[3] Building level 4
[2] Building level 4
[0] Building level 5
[1] Building level 5
[3] Building level 5
[0] Building level 6
[2] Building level 5
[1] Building level 6
[0] Building level 7
[3] Building level 6
[0] Building level 8
[1] Building level 7
[0] Building level 9
[0] Building level 10
[0] Building level 11
[0] Building level 12
[0] Building level 13
[2] Building level 6
[0] Building level 14
14 Level construction complete
[1] Building level 8
[1] Building level 9
[1] Building level 10
[3] Building level 7
[1] Building level 11
[1] Building level 12
[1] Building level 13
[1] Building level 14
[3] Building level 8
[2] Building level 7
[3] Building level 9
[3] Building level 10
[3] Building level 11
[3] Building level 12
[2] Building level 8
[3] Building level 13
[3] Building level 14
[2] Building level 9
[2] Building level 10
[2] Building level 11
[2] Building level 12
[2] Building level 13
[2] Building level 14
initial dot_x = 120596
Iter #1 residual = 0.00130993
Iter #2 residual = 0.000686206
Iter #3 residual = 0.000367338
Iter #4 residual = 0.000247672
Iter #5 residual = 0.000192037
GPU: 5 iters: 1.50229 s: 2.17814 GB/s
GPUAMG:  Solving for pd, Initial residual = 0.0030548, Final residual = 0.000139062, No Iterations 5
[2] Building level 0
[3] Building level 0
[1] Building level 0
[0] Building level 0
[2] Building level 1
[3] Building level 1
[0] Building level 1
[1] Building level 1
[0] Building level 2
[3] Building level 2
[2] Building level 2
[1] Building level 2
[0] Building level 3
[3] Building level 3
[2] Building level 3
[1] Building level 3
[0] Building level 4
[1] Building level 4
[3] Building level 4
[2] Building level 4
[0] Building level 5
[1] Building level 5
[3] Building level 5
[2] Building level 5
[0] Building level 6
[1] Building level 6
[0] Building level 7
[3] Building level 6
[0] Building level 8
[1] Building level 7
[0] Building level 9
[0] Building level 10
[2] Building level 6
[0] Building level 11
[0] Building level 12
[0] Building level 13
[0] Building level 14
14 Level construction complete
[1] Building level 8
[1] Building level 9
[1] Building level 10
[3] Building level 7
[1] Building level 11
[1] Building level 12
[1] Building level 13
[1] Building level 14
[2] Building level 7
[3] Building level 8
[3] Building level 9
[3] Building level 10
[2] Building level 8
[3] Building level 11
[3] Building level 12
[3] Building level 13
[3] Building level 14
[2] Building level 9
[2] Building level 10
[2] Building level 11
[2] Building level 12
[2] Building level 13
[2] Building level 14
initial dot_x = 112750
Iter #1 residual = 0.000472809
Iter #2 residual = 0.000184746
Iter #3 residual = 9.5545e-05
Iter #4 residual = 6.70351e-05
Iter #5 residual = 4.98387e-05
Iter #6 residual = 3.5478e-05
Iter #7 residual = 2.44049e-05
Iter #8 residual = 1.90172e-05
Iter #9 residual = 1.46884e-05
Iter #10 residual = 1.165e-05
Iter #11 residual = 9.36718e-06
Iter #12 residual = 7.41731e-06
Iter #13 residual = 5.17629e-06
Iter #14 residual = 4.02442e-06
Iter #15 residual = 3.20665e-06
Iter #16 residual = 2.58752e-06
Iter #17 residual = 2.12021e-06
Iter #18 residual = 1.73564e-06
Iter #19 residual = 1.4172e-06
Iter #20 residual = 1.16254e-06
Iter #21 residual = 9.26644e-07
Iter #22 residual = 7.3494e-07
Iter #23 residual = 5.79284e-07
Iter #24 residual = 4.51758e-07
Iter #25 residual = 3.65792e-07
Iter #26 residual = 2.69903e-07
Iter #27 residual = 1.72142e-07
Iter #28 residual = 1.19282e-07
GPU: 28 iters: 7.28189 s: 2.51641 GB/s
GPUAMG:  Solving for pd, Initial residual = 0.00264855, Final residual = 8.05128e-08, No Iterations 28
time step continuity errors : sum local = 3.77977e-12, global = 2.171e-25, cumulative = 1.65682e-25
ExecutionTime = 209.72 s  ClockTime = 222 s

Courant Number mean: 1.35764e-05 max: 0.00482758 velocity magnitude: 0.0754309
Time = 0.004

MULES: Solving for alpha1
Liquid phase volume fraction = 0.00275421  Min(alpha1) = -3.116e-30  Max(alpha1) = 1
MULES: Solving for alpha1
Liquid phase volume fraction = 0.00275421  Min(alpha1) = -4.05159e-30  Max(alpha1) = 1
[1] Building level 0
[2] Building level 0
[3] Building level 0
[0] Building level 0
[3] Building level 1
[0] Building level 1
[1] Building level 1
[2] Building level 1
[0] Building level 2
[1] Building level 2
[0] Building level 3
Reconstruction on level 3
Creating AMGLevel 
[0] Building level 4
Reconstruction on level 4
[1] Building level 3
Creating AMGLevel 
[0] Building level 5
Reconstruction on level 5
[2] Building level 2
[3] Building level 2
Creating AMGLevel 
[0] Building level 6
Reconstruction on level 6
[1] Building level 4
Creating AMGLevel 
[0] Building level 7
Reconstruction on level 7
Creating AMGLevel 
[0] Building level 8
Reconstruction on level 8
Creating AMGLevel 
[0] Building level 9
Reconstruction on level 9
Creating AMGLevel 
[0] Building level 10
Reconstruction on level 10
Creating AMGLevel 
[0] Building level 11
Reconstruction on level 11
Creating AMGLevel 
[0] Building level 12
Reconstruction on level 12
Creating AMGLevel 
[0] Building level 13
Reconstruction on level 13
Creating AMGLevel 
[0] Building level 14
Reconstruction on level 14
Creating AMGLevel 
14 Level construction complete
[1] Building level 5
[2] Building level 3
[1] Building level 6
[3] Building level 3
[1] Building level 7
[1] Building level 8
[1] Building level 9
[1] Building level 10
[1] Building level 11
[1] Building level 12
[1] Building level 13
[1] Building level 14
[2] Building level 4
[3] Building level 4
[2] Building level 5
[3] Building level 5
[2] Building level 6
[3] Building level 6
[2] Building level 7
[3] Building level 7
[2] Building level 8
[2] Building level 9
[2] Building level 10
[3] Building level 8
[2] Building level 11
[2] Building level 12
[2] Building level 13
[2] Building level 14
[3] Building level 9
[3] Building level 10
[3] Building level 11
[3] Building level 12
[3] Building level 13
[3] Building level 14
initial dot_x = 114094
Iter #1 residual = 0.0013876
Iter #2 residual = 0.000782265
Iter #3 residual = 0.000434775
Iter #4 residual = 0.000260942
GPU: 4 iters: 1.31669 s: 1.98814 GB/s
GPUAMG:  Solving for pd, Initial residual = 0.00342762, Final residual = 0.000155635, No Iterations 4
[2] Building level 0
[3] Building level 0
[0] Building level 0
[1] Building level 0
[3] Building level 1
[0] Building level 1
[1] Building level 1
[2] Building level 1
[0] Building level 2
[2] Building level 2
[3] Building level 2
[1] Building level 2
[0] Building level 3
[2] Building level 3
[3] Building level 3
[1] Building level 3
[0] Building level 4
[2] Building level 4
[3] Building level 4
[1] Building level 4
[0] Building level 5
[2] Building level 5
[3] Building level 5
[1] Building level 5
[0] Building level 6
[2] Building level 6
[3] Building level 6
[0] Building level 7
[1] Building level 6
[0] Building level 8
[2] Building level 7
[0] Building level 9
[0] Building level 10
[3] Building level 7
[0] Building level 11
[0] Building level 12
[0] Building level 13
[0] Building level 14
14 Level construction complete
[2] Building level 8
[1] Building level 7
[3] Building level 8
[2] Building level 9
[2] Building level 10
[3] Building level 9
[2] Building level 11
[2] Building level 12
[2] Building level 13
[1] Building level 8
[2] Building level 14
[3] Building level 10
[3] Building level 11
[3] Building level 12
[3] Building level 13
[3] Building level 14
[1] Building level 9
[1] Building level 10
[1] Building level 11
[1] Building level 12
[1] Building level 13
[1] Building level 14
initial dot_x = 120330
Iter #1 residual = 0.00202579
Iter #2 residual = 0.00115594
Iter #3 residual = 0.000635437
Iter #4 residual = 0.000379507
Iter #5 residual = 0.000223941
GPU: 5 iters: 1.56889 s: 2.08567 GB/s
GPUAMG:  Solving for pd, Initial residual = 0.00323996, Final residual = 0.00013739, No Iterations 5
[3] Building level 0
[2] Building level 0
[1] Building level 0
[0] Building level 0
[2] Building level 1
[3] Building level 1
[0] Building level 1
[1] Building level 1
[2] Building level 2
[0] Building level 2
[3] Building level 2
[1] Building level 2
[2] Building level 3
[0] Building level 3
[3] Building level 3
[1] Building level 3
[0] Building level 4
[2] Building level 4
[1] Building level 4
[3] Building level 4
[0] Building level 5
[2] Building level 5
[1] Building level 5
[3] Building level 5
[0] Building level 6
[1] Building level 6
[2] Building level 6
[0] Building level 7
[3] Building level 6
[2] Building level 7
[1] Building level 7
[0] Building level 8
[1] Building level 8
[0] Building level 9
[2] Building level 8
[0] Building level 10
[0] Building level 11
[1] Building level 9
[0] Building level 12
[0] Building level 13
[0] Building level 14
14 Level construction complete
[2] Building level 9
[1] Building level 10
[2] Building level 10
[1] Building level 11
[3] Building level 7
[1] Building level 12
[1] Building level 13
[2] Building level 11
[1] Building level 14
[2] Building level 12
[2] Building level 13
[2] Building level 14
[3] Building level 8
[3] Building level 9
[3] Building level 10
[3] Building level 11
[3] Building level 12
[3] Building level 13
[3] Building level 14
initial dot_x = 114147
Iter #1 residual = 0.00083652
Iter #2 residual = 0.000454158
Iter #3 residual = 0.000230344
Iter #4 residual = 0.000134175
Iter #5 residual = 7.6108e-05
Iter #6 residual = 4.58352e-05
Iter #7 residual = 2.74328e-05
Iter #8 residual = 1.6878e-05
Iter #9 residual = 1.03279e-05
Iter #10 residual = 6.42066e-06
Iter #11 residual = 4.00643e-06
Iter #12 residual = 2.4822e-06
Iter #13 residual = 1.55331e-06
Iter #14 residual = 9.69135e-07
Iter #15 residual = 6.19681e-07
Iter #16 residual = 3.89067e-07
Iter #17 residual = 2.65509e-07
Iter #18 residual = 1.69409e-07
Iter #19 residual = 1.19494e-07
GPU: 19 iters: 5.22756 s: 2.37861 GB/s
GPUAMG:  Solving for pd, Initial residual = 0.00243227, Final residual = 8.29704e-08, No Iterations 19
time step continuity errors : sum local = 3.87377e-12, global = -3.87844e-24, cumulative = -3.71276e-24
ExecutionTime = 267.62 s  ClockTime = 280 s

Courant Number mean: 1.92537e-05 max: 0.00598209 velocity magnitude: 0.0934702
Time = 0.005

MULES: Solving for alpha1
Liquid phase volume fraction = 0.00275421  Min(alpha1) = -7.6914e-33  Max(alpha1) = 1
MULES: Solving for alpha1
Liquid phase volume fraction = 0.00275421  Min(alpha1) = -1.815e-32  Max(alpha1) = 1
[1] Building level 0
[2] Building level 0
[0] Building level 0
[3] Building level 0
[3] Building level 1
[0] Building level 1
Reconstruction on level 1
[1] Building level 1
[2] Building level 1
[1] Building level 2
[1] Building level 3
Creating AMGLevel 
[0] Building level 2
Reconstruction on level 2
[2] Building level 2
[3] Building level 2
[1] Building level 4
[1] Building level 5
Creating AMGLevel 
[0] Building level 3
Reconstruction on level 3
[3] Building level 3
[2] Building level 3
[1] Building level 6
[1] Building level 7
[1] Building level 8
[1] Building level 9
[1] Building level 10
[1] Building level 11
[1] Building level 12
[1] Building level 13
[1] Building level 14
Creating AMGLevel 
[0] Building level 4
Reconstruction on level 4
[2] Building level 4
[3] Building level 4
Creating AMGLevel 
[0] Building level 5
Reconstruction on level 5
[2] Building level 5
[3] Building level 5
Creating AMGLevel 
[0] Building level 6
Reconstruction on level 6
[2] Building level 6
[3] Building level 6
Creating AMGLevel 
[0] Building level 7
Reconstruction on level 7
Creating AMGLevel 
[0] Building level 8
Reconstruction on level 8
[2] Building level 7
Creating AMGLevel 
[0] Building level 9
Reconstruction on level 9
[3] Building level 7
Creating AMGLevel 
[0] Building level 10
Reconstruction on level 10
Creating AMGLevel 
[0] Building level 11
Reconstruction on level 11
[2] Building level 8
Creating AMGLevel 
[0] Building level 12
Reconstruction on level 12
Creating AMGLevel 
[0] Building level 13
Reconstruction on level 13
Creating AMGLevel 
[0] Building level 14
Reconstruction on level 14
Creating AMGLevel 
14 Level construction complete
[3] Building level 8
[2] Building level 9
[2] Building level 10
[3] Building level 9
[2] Building level 11
[2] Building level 12
[2] Building level 13
[2] Building level 14
[3] Building level 10
[3] Building level 11
[3] Building level 12
[3] Building level 13
[3] Building level 14
initial dot_x = 114520
Iter #1 residual = 0.00130033
Iter #2 residual = 0.00067935
Iter #3 residual = 0.000405188
Iter #4 residual = 0.000233165
Iter #5 residual = 0.000145556
GPU: 5 iters: 1.55972 s: 2.09794 GB/s
GPUAMG:  Solving for pd, Initial residual = 0.00216506, Final residual = 9.1153e-05, No Iterations 5
[3] Building level 0
[1] Building level 0
[0] Building level 0
[2] Building level 0
[0] Building level 1
[1] Building level 1
[3] Building level 1
[2] Building level 1
[0] Building level 2
[3] Building level 2
[2] Building level 2
[1] Building level 2
[0] Building level 3
[3] Building level 3
[2] Building level 3
[1] Building level 3
[0] Building level 4
[3] Building level 4
[2] Building level 4
[1] Building level 4
[0] Building level 5
[3] Building level 5
[2] Building level 5
[1] Building level 5
[0] Building level 6
[3] Building level 6
[2] Building level 6
[0] Building level 7
[1] Building level 6
[0] Building level 8
[3] Building level 7
[0] Building level 9
[2] Building level 7
[0] Building level 10
[0] Building level 11
[0] Building level 12
[0] Building level 13
[0] Building level 14
14 Level construction complete
[1] Building level 7
[3] Building level 8
[2] Building level 8
[3] Building level 9
[2] Building level 9
[3] Building level 10
[1] Building level 8
[3] Building level 11
[2] Building level 10
[3] Building level 12
[3] Building level 13
[3] Building level 14
[2] Building level 11
[2] Building level 12
[2] Building level 13
[1] Building level 9
[2] Building level 14
[1] Building level 10
[1] Building level 11
[1] Building level 12
[1] Building level 13
[1] Building level 14
initial dot_x = 119037
Iter #1 residual = 0.00105768
Iter #2 residual = 0.000544659
Iter #3 residual = 0.000324627
Iter #4 residual = 0.00017445
Iter #5 residual = 0.000116173
GPU: 5 iters: 1.57243 s: 2.08097 GB/s
GPUAMG:  Solving for pd, Initial residual = 0.00179993, Final residual = 7.00162e-05, No Iterations 5
[1] Building level 0
[3] Building level 0
[2] Building level 0
[0] Building level 0
[3] Building level 1
[0] Building level 1
[2] Building level 1
[1] Building level 1
[0] Building level 2
[1] Building level 2
[2] Building level 2
[3] Building level 2
[0] Building level 3
[2] Building level 3
[1] Building level 3
[3] Building level 3
[0] Building level 4
[1] Building level 4
[2] Building level 4
[3] Building level 4
[0] Building level 5
[1] Building level 5
[2] Building level 5
[3] Building level 5
[0] Building level 6
[1] Building level 6
[2] Building level 6
[0] Building level 7
[1] Building level 7
[3] Building level 6
[1] Building level 8
[0] Building level 8
[1] Building level 9
[0] Building level 9
[2] Building level 7
[1] Building level 10
[0] Building level 10
[1] Building level 11
[0] Building level 11
[1] Building level 12
[0] Building level 12
[1] Building level 13
[1] Building level 14
[0] Building level 13
[0] Building level 14
14 Level construction complete
[3] Building level 7
[2] Building level 8
[2] Building level 9
[2] Building level 10
[3] Building level 8
[2] Building level 11
[2] Building level 12
[2] Building level 13
[2] Building level 14
[3] Building level 9
[3] Building level 10
[3] Building level 11
[3] Building level 12
[3] Building level 13
[3] Building level 14
initial dot_x = 113841
Iter #1 residual = 0.000559277
Iter #2 residual = 0.000327861
Iter #3 residual = 0.00018195
Iter #4 residual = 0.000112454
Iter #5 residual = 7.05098e-05
Iter #6 residual = 4.8484e-05
Iter #7 residual = 3.8295e-05
Iter #8 residual = 2.95086e-05
Iter #9 residual = 2.38704e-05
Iter #10 residual = 1.88468e-05
Iter #11 residual = 1.53137e-05
Iter #12 residual = 1.19972e-05
Iter #13 residual = 1.01098e-05
Iter #14 residual = 8.2389e-06
Iter #15 residual = 7.14158e-06
Iter #16 residual = 5.84991e-06
Iter #17 residual = 4.74981e-06
Iter #18 residual = 3.94195e-06
Iter #19 residual = 3.38995e-06
Iter #20 residual = 2.8663e-06
Iter #21 residual = 2.79693e-06
Iter #22 residual = 1.43292e-06
Iter #23 residual = 1.18294e-06
Iter #24 residual = 1.03534e-06
Iter #25 residual = 5.90958e-07
Iter #26 residual = 4.50732e-07
Iter #27 residual = 2.37934e-07
Iter #28 residual = 1.49978e-07
Iter #29 residual = 1.24794e-07
GPU: 29 iters: 7.84003 s: 2.42074 GB/s
GPUAMG:  Solving for pd, Initial residual = 0.0014534, Final residual = 7.77862e-08, No Iterations 29
time step continuity errors : sum local = 3.65758e-12, global = -3.42154e-24, cumulative = -7.1343e-24
ExecutionTime = 328.16 s  ClockTime = 342 s

Courant Number mean: 2.4394e-05 max: 0.00684034 velocity magnitude: 0.10688
Time = 0.006

MULES: Solving for alpha1
Liquid phase volume fraction = 0.00275421  Min(alpha1) = -1.4338e-30  Max(alpha1) = 1
MULES: Solving for alpha1
Liquid phase volume fraction = 0.00275421  Min(alpha1) = -6.90263e-30  Max(alpha1) = 1
[2] Building level 0
[3] Building level 0
[1] Building level 0
[0] Building level 0
[3] Building level 1
[2] Building level 1
[0] Building level 1
[1] Building level 1
[0] Building level 2
Reconstruction on level 2
[1] Building level 2
Creating AMGLevel 
[0] Building level 3
Reconstruction on level 3
[1] Building level 3
[2] Building level 2
[3] Building level 2
Creating AMGLevel 
[0] Building level 4
Reconstruction on level 4
[1] Building level 4
Creating AMGLevel 
[0] Building level 5
Reconstruction on level 5
[1] Building level 5
[3] Building level 3
[2] Building level 3
Creating AMGLevel 
[0] Building level 6
Reconstruction on level 6
[1] Building level 6
Creating AMGLevel 
[0] Building level 7
Reconstruction on level 7
[1] Building level 7
Creating AMGLevel 
[0] Building level 8
Reconstruction on level 8
[1] Building level 8
Creating AMGLevel 
[0] Building level 9
Reconstruction on level 9
Creating AMGLevel 
[0] Building level 10
Reconstruction on level 10
[1] Building level 9
Creating AMGLevel 
[0] Building level 11
Reconstruction on level 11
Creating AMGLevel 
[0] Building level 12
Reconstruction on level 12
Creating AMGLevel 
[0] Building level 13
Reconstruction on level 13
[1] Building level 10
Creating AMGLevel 
[0] Building level 14
Reconstruction on level 14
Creating AMGLevel 
14 Level construction complete
[1] Building level 11
[1] Building level 12
[1] Building level 13
[1] Building level 14
[3] Building level 4
[2] Building level 4
[3] Building level 5
[2] Building level 5
[3] Building level 6
[2] Building level 6
[3] Building level 7
[2] Building level 7
[3] Building level 8
[2] Building level 8
[3] Building level 9
[2] Building level 9
[2] Building level 10
[3] Building level 10
[2] Building level 11
[3] Building level 11
[2] Building level 12
[3] Building level 12
[2] Building level 13
[3] Building level 13
[2] Building level 14
[3] Building level 14
initial dot_x = 113903
Iter #1 residual = 0.00148465
Iter #2 residual = 0.000830507
Iter #3 residual = 0.00048055
Iter #4 residual = 0.000291307
Iter #5 residual = 0.000176327
Iter #6 residual = 0.00011764
GPU: 6 iters: 1.85916 s: 2.11204 GB/s
GPUAMG:  Solving for pd, Initial residual = 0.00228093, Final residual = 7.25168e-05, No Iterations 6
[1] Building level 0
[2] Building level 0
[0] Building level 0
[3] Building level 0
[0] Building level 1
[1] Building level 1
[2] Building level 1
[3] Building level 1
[2] Building level 2
[0] Building level 2
[3] Building level 2
[1] Building level 2
[2] Building level 3
[0] Building level 3
[3] Building level 3
[1] Building level 3
[2] Building level 4
[0] Building level 4
[3] Building level 4
[1] Building level 4
[0] Building level 5
[2] Building level 5
[3] Building level 5
[1] Building level 5
[0] Building level 6
[2] Building level 6
[3] Building level 6
[1] Building level 6
[0] Building level 7
[2] Building level 7
[0] Building level 8
[2] Building level 8
[3] Building level 7
[0] Building level 9
[2] Building level 9
[1] Building level 7
[2] Building level 10
[0] Building level 10
[2] Building level 11
[0] Building level 11
[2] Building level 12
[0] Building level 12
[2] Building level 13
[0] Building level 13
[2] Building level 14
[3] Building level 8
[0] Building level 14
14 Level construction complete
[3] Building level 9
[1] Building level 8
[3] Building level 10
[3] Building level 11
[3] Building level 12
[3] Building level 13
[3] Building level 14
[1] Building level 9
[1] Building level 10
[1] Building level 11
[1] Building level 12
[1] Building level 13
[1] Building level 14
initial dot_x = 118677
Iter #1 residual = 0.00119143
Iter #2 residual = 0.000644446
Iter #3 residual = 0.000368783
Iter #4 residual = 0.000261277
Iter #5 residual = 0.000195988
Iter #6 residual = 0.000155347
Iter #7 residual = 0.000121258
Iter #8 residual = 9.19324e-05
Iter #9 residual = 7.3299e-05
GPU: 9 iters: 2.63832 s: 2.23246 GB/s
GPUAMG:  Solving for pd, Initial residual = 0.0011543, Final residual = 5.7693e-05, No Iterations 9
[2] Building level 0
[0] Building level 0
[3] Building level 0
[1] Building level 0
[3] Building level 1
[0] Building level 1
[2] Building level 1
[1] Building level 1
[2] Building level 2
[0] Building level 2
[1] Building level 2
[3] Building level 2
[0] Building level 3
[2] Building level 3
[1] Building level 3
[3] Building level 3
[0] Building level 4
[2] Building level 4
[1] Building level 4
[3] Building level 4
[2] Building level 5
[0] Building level 5
[1] Building level 5
[3] Building level 5
[2] Building level 6
[1] Building level 6
[0] Building level 6
[2] Building level 7
[1] Building level 7
[3] Building level 6
[0] Building level 7
[2] Building level 8
[1] Building level 8
[0] Building level 8
[2] Building level 9
[1] Building level 9
[2] Building level 10
[1] Building level 10
[0] Building level 9
[2] Building level 11
[2] Building level 12
[1] Building level 11
[2] Building level 13
[2] Building level 14
[1] Building level 12
[1] Building level 13
[1] Building level 14
[3] Building level 7
[0] Building level 10
[0] Building level 11
[0] Building level 12
[0] Building level 13
[0] Building level 14
14 Level construction complete
[3] Building level 8
[3] Building level 9
[3] Building level 10
[3] Building level 11
[3] Building level 12
[3] Building level 13
[3] Building level 14
initial dot_x = 115022
Iter #1 residual = 0.000260688
Iter #2 residual = 0.000164259
Iter #3 residual = 9.26545e-05
Iter #4 residual = 7.03772e-05
Iter #5 residual = 5.39952e-05
Iter #6 residual = 4.16833e-05
Iter #7 residual = 3.20073e-05
Iter #8 residual = 2.83797e-05
Iter #9 residual = 1.65669e-05
Iter #10 residual = 9.80406e-06
Iter #11 residual = 5.90135e-06
Iter #12 residual = 4.26778e-06
Iter #13 residual = 4.0603e-06
Iter #14 residual = 2.25829e-06
Iter #15 residual = 1.43785e-06
Iter #16 residual = 9.95053e-07
Iter #17 residual = 9.30094e-07
Iter #18 residual = 6.71202e-07
Iter #19 residual = 5.81056e-07
Iter #20 residual = 3.69223e-07
Iter #21 residual = 5.66456e-07
Iter #22 residual = 3.39631e-07
Iter #23 residual = 3.68528e-07
Iter #24 residual = 2.52238e-07
Iter #25 residual = 1.86135e-07
Iter #26 residual = 2.1658e-07
Iter #27 residual = 2.42179e-07
Iter #28 residual = 1.69296e-07
Iter #29 residual = 1.43088e-07
Iter #30 residual = 1.8917e-07
Iter #31 residual = 1.77035e-07
GPU: 31 iters: 8.50765 s: 2.38463 GB/s
GPUAMG:  Solving for pd, Initial residual = 0.000724634, Final residual = 9.27828e-08, No Iterations 31
time step continuity errors : sum local = 4.58904e-12, global = 5.3346e-24, cumulative = -1.7997e-24
ExecutionTime = 390.62 s  ClockTime = 405 s

Courant Number mean: 2.95102e-05 max: 0.00764228 velocity magnitude: 0.119411
Time = 0.007

MULES: Solving for alpha1
Liquid phase volume fraction = 0.00275421  Min(alpha1) = -2.49999e-29  Max(alpha1) = 1
MULES: Solving for alpha1
Liquid phase volume fraction = 0.00275421  Min(alpha1) = -8.01975e-31  Max(alpha1) = 1
[1] Building level 0
[3] Building level 0
[0] Building level 0
[2] Building level 0
[3] Building level 1
[0] Building level 1
Reconstruction on level 1
[1] Building level 1
[2] Building level 1
[2] Building level 2
[1] Building level 2
[1] Building level 3
[2] Building level 3
Creating AMGLevel 
[0] Building level 2
Reconstruction on level 2
[3] Building level 2
[1] Building level 4
[2] Building level 4
[1] Building level 5
[2] Building level 5
Creating AMGLevel 
[0] Building level 3
Reconstruction on level 3
[3] Building level 3
[1] Building level 6
[2] Building level 6
[1] Building level 7
[2] Building level 7
[1] Building level 8
[1] Building level 9
[2] Building level 8
[1] Building level 10
[1] Building level 11
[1] Building level 12
[2] Building level 9
[1] Building level 13
[1] Building level 14
[2] Building level 10
[2] Building level 11
[2] Building level 12
[2] Building level 13
[2] Building level 14
[3] Building level 4
Creating AMGLevel 
[0] Building level 4
Reconstruction on level 4
[3] Building level 5
Creating AMGLevel 
[0] Building level 5
Reconstruction on level 5
[3] Building level 6
Creating AMGLevel 
[0] Building level 6
Reconstruction on level 6
[3] Building level 7
Creating AMGLevel 
[0] Building level 7
Reconstruction on level 7
[3] Building level 8
Creating AMGLevel 
[0] Building level 8
Reconstruction on level 8
[3] Building level 9
[3] Building level 10
Creating AMGLevel 
[0] Building level 9
Reconstruction on level 9
[3] Building level 11
[3] Building level 12
[3] Building level 13
[3] Building level 14
Creating AMGLevel 
[0] Building level 10
Reconstruction on level 10
Creating AMGLevel 
[0] Building level 11
Reconstruction on level 11
Creating AMGLevel 
[0] Building level 12
Reconstruction on level 12
Creating AMGLevel 
[0] Building level 13
Reconstruction on level 13
Creating AMGLevel 
[0] Building level 14
Reconstruction on level 14
Creating AMGLevel 
14 Level construction complete
initial dot_x = 113957
Iter #1 residual = 0.00141216
Iter #2 residual = 0.000799221
Iter #3 residual = 0.000451671
Iter #4 residual = 0.000343194
Iter #5 residual = 0.000265625
Iter #6 residual = 0.00019892
Iter #7 residual = 0.000153321
Iter #8 residual = 0.000121962
GPU: 8 iters: 2.26718 s: 2.30926 GB/s
GPUAMG:  Solving for pd, Initial residual = 0.00232796, Final residual = 8.64816e-05, No Iterations 8
[1] Building level 0
[3] Building level 0
[2] Building level 0
[0] Building level 0
[0] Building level 1
[2] Building level 1
[1] Building level 1
[3] Building level 1
[2] Building level 2
[0] Building level 2
[3] Building level 2
[1] Building level 2
[2] Building level 3
[3] Building level 3
[0] Building level 3
[1] Building level 3
[3] Building level 4
[2] Building level 4
[0] Building level 4
[1] Building level 4
[3] Building level 5
[2] Building level 5
[1] Building level 5
[0] Building level 5
[3] Building level 6
[2] Building level 6
[1] Building level 6
[3] Building level 7
[0] Building level 6
[3] Building level 8
[2] Building level 7
[3] Building level 9
[3] Building level 10
[3] Building level 11
[1] Building level 7
[3] Building level 12
[3] Building level 13
[3] Building level 14
[2] Building level 8
[0] Building level 7
[2] Building level 9
[1] Building level 8
[2] Building level 10
[2] Building level 11
[2] Building level 12
[2] Building level 13
[2] Building level 14
[1] Building level 9
[0] Building level 8
[1] Building level 10
[1] Building level 11
[1] Building level 12
[1] Building level 13
[1] Building level 14
[0] Building level 9
[0] Building level 10
[0] Building level 11
[0] Building level 12
[0] Building level 13
[0] Building level 14
14 Level construction complete
initial dot_x = 119267
Iter #1 residual = 0.0011977
Iter #2 residual = 0.000704374
Iter #3 residual = 0.000391012
Iter #4 residual = 0.000276808
Iter #5 residual = 0.000208445
Iter #6 residual = 0.000159716
Iter #7 residual = 0.000123916
Iter #8 residual = 9.82789e-05
Iter #9 residual = 7.20926e-05
Iter #10 residual = 5.59864e-05
GPU: 10 iters: 2.7645 s: 2.36729 GB/s
GPUAMG:  Solving for pd, Initial residual = 0.00109081, Final residual = 4.70689e-05, No Iterations 10
[3] Building level 0
[2] Building level 0
[0] Building level 0
[1] Building level 0
[3] Building level 1
[2] Building level 1
[0] Building level 1
[1] Building level 1
[2] Building level 2
[3] Building level 2
[0] Building level 2
[1] Building level 2
[2] Building level 3
[0] Building level 3
[1] Building level 3
[3] Building level 3
[2] Building level 4
[1] Building level 4
[3] Building level 4
[0] Building level 4
[2] Building level 5
[1] Building level 5
[3] Building level 5
[0] Building level 5
[2] Building level 6
[1] Building level 6
[3] Building level 6
[0] Building level 6
[1] Building level 7
[2] Building level 7
[3] Building level 7
[1] Building level 8
[2] Building level 8
[0] Building level 7
[1] Building level 9
[2] Building level 9
[3] Building level 8
[1] Building level 10
[2] Building level 10
[1] Building level 11
[2] Building level 11
[1] Building level 12
[1] Building level 13
[1] Building level 14
[2] Building level 12
[3] Building level 9
[2] Building level 13
[2] Building level 14
[0] Building level 8
[3] Building level 10
[3] Building level 11
[3] Building level 12
[3] Building level 13
[3] Building level 14
[0] Building level 9
[0] Building level 10
[0] Building level 11
[0] Building level 12
[0] Building level 13
[0] Building level 14
14 Level construction complete
initial dot_x = 114487
Iter #1 residual = 0.000200917
Iter #2 residual = 0.000132655
Iter #3 residual = 8.55018e-05
Iter #4 residual = 6.09553e-05
Iter #5 residual = 4.30042e-05
Iter #6 residual = 3.21588e-05
Iter #7 residual = 2.33426e-05
Iter #8 residual = 1.62769e-05
Iter #9 residual = 1.10841e-05
Iter #10 residual = 8.12134e-06
Iter #11 residual = 6.7474e-06
Iter #12 residual = 4.89352e-06
Iter #13 residual = 3.52634e-06
Iter #14 residual = 2.88252e-06
Iter #15 residual = 2.7822e-06
Iter #16 residual = 1.32044e-06
Iter #17 residual = 1.22627e-06
Iter #18 residual = 7.14876e-07
Iter #19 residual = 7.72411e-07
Iter #20 residual = 5.27072e-07
Iter #21 residual = 9.55948e-07
Iter #22 residual = 4.02435e-07
Iter #23 residual = 3.35828e-07
Iter #24 residual = 3.43837e-07
Iter #25 residual = 4.55698e-07
Iter #26 residual = 2.5313e-07
Iter #27 residual = 1.39959e-07
Iter #28 residual = 3.49729e-07
Iter #29 residual = 4.43277e-07
Iter #30 residual = 3.27058e-07
Iter #31 residual = 1.96265e-07
GPU: 31 iters: 8.07346 s: 2.51287 GB/s
GPUAMG:  Solving for pd, Initial residual = 0.00055601, Final residual = 9.6697e-08, No Iterations 31
time step continuity errors : sum local = 4.91498e-12, global = 3.42458e-24, cumulative = 1.62488e-24
ExecutionTime = 452.98 s  ClockTime = 469 s

Courant Number mean: 3.46312e-05 max: 0.00834951 velocity magnitude: 0.130461
Time = 0.008

MULES: Solving for alpha1
Liquid phase volume fraction = 0.00275421  Min(alpha1) = -2.00193e-30  Max(alpha1) = 1
MULES: Solving for alpha1
Liquid phase volume fraction = 0.00275421  Min(alpha1) = -3.62403e-30  Max(alpha1) = 1
[2] Building level 0
[1] Building level 0
[3] Building level 0
[0] Building level 0
[3] Building level 1
[2] Building level 1
[0] Building level 1
Reconstruction on level 1
[1] Building level 1
[2] Building level 2
[1] Building level 2
[1] Building level 3
[2] Building level 3
Creating AMGLevel 
[0] Building level 2
Reconstruction on level 2
[3] Building level 2
[1] Building level 4
[2] Building level 4
[1] Building level 5
[2] Building level 5
Creating AMGLevel 
[0] Building level 3
Reconstruction on level 3
[3] Building level 3
[1] Building level 6
[2] Building level 6
[1] Building level 7
[2] Building level 7
[1] Building level 8
[2] Building level 8
[1] Building level 9
[1] Building level 10
[2] Building level 9
[1] Building level 11
[1] Building level 12
[2] Building level 10
[1] Building level 13
[1] Building level 14
[2] Building level 11
[2] Building level 12
[2] Building level 13
[2] Building level 14
[3] Building level 4
Creating AMGLevel 
[0] Building level 4
Reconstruction on level 4
[3] Building level 5
Creating AMGLevel 
[0] Building level 5
Reconstruction on level 5
[3] Building level 6
Creating AMGLevel 
[0] Building level 6
Reconstruction on level 6
[3] Building level 7
Creating AMGLevel 
[0] Building level 7
Reconstruction on level 7
[3] Building level 8
Creating AMGLevel 
[0] Building level 8
Reconstruction on level 8
[3] Building level 9
[3] Building level 10
Creating AMGLevel 
[0] Building level 9
Reconstruction on level 9
[3] Building level 11
[3] Building level 12
[3] Building level 13
Creating AMGLevel 
[3] Building level 14
[0] Building level 10
Reconstruction on level 10
Creating AMGLevel 
[0] Building level 11
Reconstruction on level 11
Creating AMGLevel 
[0] Building level 12
Reconstruction on level 12
Creating AMGLevel 
[0] Building level 13
Reconstruction on level 13
Creating AMGLevel 
[0] Building level 14
Reconstruction on level 14
Creating AMGLevel 
14 Level construction complete
initial dot_x = 113774
Iter #1 residual = 0.0014574
Iter #2 residual = 0.000774021
Iter #3 residual = 0.000430991
Iter #4 residual = 0.000258946
Iter #5 residual = 0.000153827
GPU: 5 iters: 1.45686 s: 2.24606 GB/s
GPUAMG:  Solving for pd, Initial residual = 0.00236332, Final residual = 9.64467e-05, No Iterations 5
[1] Building level 0
[2] Building level 0
[0] Building level 0
[3] Building level 0
[2] Building level 1
[0] Building level 1
[1] Building level 1
[3] Building level 1
[2] Building level 2
[0] Building level 2
[3] Building level 2
[1] Building level 2
[2] Building level 3
[0] Building level 3
[3] Building level 3
[1] Building level 3
[2] Building level 4
[0] Building level 4
[3] Building level 4
[1] Building level 4
[2] Building level 5
[0] Building level 5
[3] Building level 5
[1] Building level 5
[2] Building level 6
[0] Building level 6
[3] Building level 6
[2] Building level 7
[1] Building level 6
[0] Building level 7
[2] Building level 8
[3] Building level 7
[2] Building level 9
[2] Building level 10
[0] Building level 8
[2] Building level 11
[2] Building level 12
[3] Building level 8
[2] Building level 13
[2] Building level 14
[1] Building level 7
[0] Building level 9
[3] Building level 9
[0] Building level 10
[3] Building level 10
[0] Building level 11
[0] Building level 12
[3] Building level 11
[0] Building level 13
[0] Building level 14
[3] Building level 12
14 Level construction complete
[3] Building level 13
[3] Building level 14
[1] Building level 8
[1] Building level 9
[1] Building level 10
[1] Building level 11
[1] Building level 12
[1] Building level 13
[1] Building level 14
initial dot_x = 119744
Iter #1 residual = 0.00125988
Iter #2 residual = 0.000654575
Iter #3 residual = 0.00036042
Iter #4 residual = 0.000215939
Iter #5 residual = 0.000128921
Iter #6 residual = 7.49635e-05
GPU: 6 iters: 1.68862 s: 2.32534 GB/s
GPUAMG:  Solving for pd, Initial residual = 0.00106811, Final residual = 4.76927e-05, No Iterations 6
[2] Building level 0
[3] Building level 0
[0] Building level 0
[1] Building level 0
[3] Building level 1
[2] Building level 1
[0] Building level 1
[1] Building level 1
[2] Building level 2
[0] Building level 2
[3] Building level 2
[1] Building level 2
[2] Building level 3
[0] Building level 3
[1] Building level 3
[3] Building level 3
[2] Building level 4
[0] Building level 4
[1] Building level 4
[3] Building level 4
[2] Building level 5
[0] Building level 5
[1] Building level 5
[3] Building level 5
[0] Building level 6
[2] Building level 6
[1] Building level 6
[0] Building level 7
[3] Building level 6
[2] Building level 7
[0] Building level 8
[1] Building level 7
[2] Building level 8
[0] Building level 9
[0] Building level 10
[2] Building level 9
[3] Building level 7
[0] Building level 11
[0] Building level 12
[0] Building level 13
[1] Building level 8
[0] Building level 14
14 Level construction complete
[2] Building level 10
[2] Building level 11
[2] Building level 12
[2] Building level 13
[2] Building level 14
[1] Building level 9
[1] Building level 10
[1] Building level 11
[3] Building level 8
[1] Building level 12
[1] Building level 13
[1] Building level 14
[3] Building level 9
[3] Building level 10
[3] Building level 11
[3] Building level 12
[3] Building level 13
[3] Building level 14
initial dot_x = 115061
Iter #1 residual = 0.000176337
Iter #2 residual = 0.000103059
Iter #3 residual = 6.2003e-05
Iter #4 residual = 3.81628e-05
Iter #5 residual = 2.46186e-05
Iter #6 residual = 1.72603e-05
Iter #7 residual = 1.17345e-05
Iter #8 residual = 8.87381e-06
Iter #9 residual = 6.77598e-06
Iter #10 residual = 4.10177e-06
Iter #11 residual = 4.01241e-06
Iter #12 residual = 1.95665e-06
Iter #13 residual = 1.52754e-06
Iter #14 residual = 2.03499e-06
Iter #15 residual = 1.81159e-06
Iter #16 residual = 1.40475e-06
Iter #17 residual = 1.59144e-06
Iter #18 residual = 1.08374e-06
Iter #19 residual = 7.94515e-07
Iter #20 residual = 1.19294e-06
Iter #21 residual = 5.41084e-07
Iter #22 residual = 4.96285e-07
Iter #23 residual = 8.41864e-07
Iter #24 residual = 5.39919e-07
Iter #25 residual = 4.22908e-07
Iter #26 residual = 2.23636e-07
Iter #27 residual = 3.20616e-07
Iter #28 residual = 2.54844e-07
Iter #29 residual = 2.7092e-07
Iter #30 residual = 3.2462e-07
Iter #31 residual = 4.43006e-07
Iter #32 residual = 1.98236e-07
Iter #33 residual = 1.68258e-07
Iter #34 residual = 1.73164e-07
Iter #35 residual = 1.03461e-07
Iter #36 residual = 2.01441e-07
Iter #37 residual = 1.12168e-07
Iter #38 residual = 1.55737e-07
Iter #39 residual = 1.01484e-07
Iter #40 residual = 1.25246e-07
GPU: 40 iters: 9.96281 s: 2.62752 GB/s
GPUAMG:  Solving for pd, Initial residual = 0.000469879, Final residual = 8.80355e-08, No Iterations 40
time step continuity errors : sum local = 4.2715e-12, global = 3.00706e-25, cumulative = 1.92558e-24
ExecutionTime = 515.99 s  ClockTime = 533 s

Courant Number mean: 3.97663e-05 max: 0.00903211 velocity magnitude: 0.140375
Time = 0.009

MULES: Solving for alpha1
Liquid phase volume fraction = 0.00275421  Min(alpha1) = -5.27947e-30  Max(alpha1) = 1
MULES: Solving for alpha1
Liquid phase volume fraction = 0.00275421  Min(alpha1) = -8.51597e-30  Max(alpha1) = 1
[0] Building level 0
[1] Building level 0
[3] Building level 0
[2] Building level 0
[3] Building level 1
[0] Building level 1
[2] Building level 1
[1] Building level 1
[0] Building level 2
Reconstruction on level 2
[2] Building level 2
Creating AMGLevel 
[0] Building level 3
Reconstruction on level 3
[2] Building level 3
[3] Building level 2
[1] Building level 2
Creating AMGLevel 
[0] Building level 4
Reconstruction on level 4
[2] Building level 4
Creating AMGLevel 
[0] Building level 5
Reconstruction on level 5
[2] Building level 5
[3] Building level 3
[1] Building level 3
Creating AMGLevel 
[0] Building level 6
Reconstruction on level 6
[2] Building level 6
[2] Building level 7
Creating AMGLevel 
[0] Building level 7
Reconstruction on level 7
[2] Building level 8
Creating AMGLevel 
[0] Building level 8
Reconstruction on level 8
[2] Building level 9
Creating AMGLevel 
[0] Building level 9
Reconstruction on level 9
[2] Building level 10
Creating AMGLevel 
[0] Building level 10
Reconstruction on level 10
[2] Building level 11
Creating AMGLevel 
[0] Building level 11
Reconstruction on level 11
[2] Building level 12
Creating AMGLevel 
[0] Building level 12
Reconstruction on level 12
[2] Building level 13
Creating AMGLevel 
[0] Building level 13
Reconstruction on level 13
[2] Building level 14
Creating AMGLevel 
[0] Building level 14
Reconstruction on level 14
Creating AMGLevel 
14 Level construction complete
[3] Building level 4
[1] Building level 4
[3] Building level 5
[1] Building level 5
[3] Building level 6
[1] Building level 6
[3] Building level 7
[1] Building level 7
[3] Building level 8
[1] Building level 8
[3] Building level 9
[1] Building level 9
[3] Building level 10
[1] Building level 10
[3] Building level 11
[3] Building level 12
[1] Building level 11
[3] Building level 13
[1] Building level 12
[3] Building level 14
[1] Building level 13
[1] Building level 14
initial dot_x = 113953
Iter #1 residual = 0.00141832
Iter #2 residual = 0.000761934
Iter #3 residual = 0.000410168
Iter #4 residual = 0.000241692
Iter #5 residual = 0.000142841
GPU: 5 iters: 1.54576 s: 2.11688 GB/s
GPUAMG:  Solving for pd, Initial residual = 0.00242279, Final residual = 8.69727e-05, No Iterations 5
[0] Building level 0
[3] Building level 0
[1] Building level 0
[2] Building level 0
[2] Building level 1
[0] Building level 1
[3] Building level 1
[1] Building level 1
[2] Building level 2
[1] Building level 2
[0] Building level 2
[3] Building level 2
[1] Building level 3
[2] Building level 3
[0] Building level 3
[3] Building level 3
[1] Building level 4
[3] Building level 4
[2] Building level 4
[0] Building level 4
[1] Building level 5
[3] Building level 5
[2] Building level 5
[0] Building level 5
[1] Building level 6
[3] Building level 6
[0] Building level 6
[2] Building level 6
[1] Building level 7
[3] Building level 7
[1] Building level 8
[1] Building level 9
[0] Building level 7
[2] Building level 7
[3] Building level 8
[1] Building level 10
[1] Building level 11
[1] Building level 12
[1] Building level 13
[1] Building level 14
[3] Building level 9
[3] Building level 10
[3] Building level 11
[3] Building level 12
[0] Building level 8
[3] Building level 13
[2] Building level 8
[3] Building level 14
[0] Building level 9
[2] Building level 9
[0] Building level 10
[2] Building level 10
[0] Building level 11
[2] Building level 11
[0] Building level 12
[2] Building level 12
[0] Building level 13
[0] Building level 14
14 Level construction complete
[2] Building level 13
[2] Building level 14
initial dot_x = 119822
Iter #1 residual = 0.00123623
Iter #2 residual = 0.000646929
Iter #3 residual = 0.000345369
Iter #4 residual = 0.000201155
Iter #5 residual = 0.000117671
Iter #6 residual = 7.05714e-05
GPU: 6 iters: 1.76857 s: 2.22023 GB/s
GPUAMG:  Solving for pd, Initial residual = 0.00100971, Final residual = 4.28522e-05, No Iterations 6
[3] Building level 0
[2] Building level 0
[0] Building level 0
[1] Building level 0
[2] Building level 1
[3] Building level 1
[1] Building level 1
[0] Building level 1
[2] Building level 2
[1] Building level 2
[0] Building level 2
[3] Building level 2
[2] Building level 3
[1] Building level 3
[0] Building level 3
[3] Building level 3
[1] Building level 4
[2] Building level 4
[0] Building level 4
[3] Building level 4
[1] Building level 5
[2] Building level 5
[3] Building level 5
[0] Building level 5
[1] Building level 6
[2] Building level 6
[0] Building level 6
[3] Building level 6
[1] Building level 7
[2] Building level 7
[1] Building level 8
[0] Building level 7
[3] Building level 7
[1] Building level 9
[2] Building level 8
[1] Building level 10
[1] Building level 11
[1] Building level 12
[1] Building level 13
[1] Building level 14
[2] Building level 9
[0] Building level 8
[3] Building level 8
[2] Building level 10
[2] Building level 11
[2] Building level 12
[3] Building level 9
[0] Building level 9
[2] Building level 13
[2] Building level 14
[3] Building level 10
[0] Building level 10
[3] Building level 11
[0] Building level 11
[3] Building level 12
[0] Building level 12
[3] Building level 13
[0] Building level 13
[3] Building level 14
[0] Building level 14
14 Level construction complete
initial dot_x = 114289
Iter #1 residual = 0.000156722
Iter #2 residual = 9.22447e-05
Iter #3 residual = 5.22867e-05
Iter #4 residual = 3.18743e-05
Iter #5 residual = 1.93432e-05
Iter #6 residual = 1.179e-05
Iter #7 residual = 7.26997e-06
Iter #8 residual = 4.46592e-06
Iter #9 residual = 2.90366e-06
Iter #10 residual = 1.94586e-06
Iter #11 residual = 1.35886e-06
Iter #12 residual = 9.76876e-07
Iter #13 residual = 7.21697e-07
Iter #14 residual = 5.33194e-07
Iter #15 residual = 4.16556e-07
Iter #16 residual = 3.06577e-07
Iter #17 residual = 2.59023e-07
Iter #18 residual = 1.82479e-07
Iter #19 residual = 1.6985e-07
GPU: 19 iters: 5.0944 s: 2.44078 GB/s
GPUAMG:  Solving for pd, Initial residual = 0.000377791, Final residual = 9.75838e-08, No Iterations 19
time step continuity errors : sum local = 4.48713e-12, global = -1.07298e-23, cumulative = -8.80423e-24
ExecutionTime = 574.21 s  ClockTime = 592 s

Courant Number mean: 4.4921e-05 max: 0.00971308 velocity magnitude: 0.14937
Time = 0.01

MULES: Solving for alpha1
Liquid phase volume fraction = 0.00275421  Min(alpha1) = -1.52553e-29  Max(alpha1) = 1
MULES: Solving for alpha1
Liquid phase volume fraction = 0.00275421  Min(alpha1) = -2.59407e-29  Max(alpha1) = 1
[2] Building level 0
[3] Building level 0
[0] Building level 0
[1] Building level 0
[3] Building level 1
[2] Building level 1
[1] Building level 1
[0] Building level 1
Reconstruction on level 1
[3] Building level 2
Creating AMGLevel 
[2] Building level 2
[0] Building level 2
Reconstruction on level 2
[1] Building level 2
[3] Building level 3
Creating AMGLevel 
[1] Building level 3
[0] Building level 3
Reconstruction on level 3
[2] Building level 3
[3] Building level 4
[1] Building level 4
Creating AMGLevel 
[0] Building level 4
Reconstruction on level 4
[2] Building level 4
[3] Building level 5
[1] Building level 5
Creating AMGLevel 
[0] Building level 5
Reconstruction on level 5
[2] Building level 5
[3] Building level 6
[1] Building level 6
Creating AMGLevel 
[0] Building level 6
Reconstruction on level 6
[2] Building level 6
[3] Building level 7
[1] Building level 7
Creating AMGLevel 
[3] Building level 8
[0] Building level 7
Reconstruction on level 7
[2] Building level 7
[3] Building level 9
[1] Building level 8
[3] Building level 10
Creating AMGLevel 
[0] Building level 8
Reconstruction on level 8
[3] Building level 11
[2] Building level 8
[3] Building level 12
[1] Building level 9
[3] Building level 13
[3] Building level 14
[1] Building level 10
Creating AMGLevel 
[0] Building level 9
Reconstruction on level 9
[1] Building level 11
[2] Building level 9
[1] Building level 12
[1] Building level 13
Creating AMGLevel 
[0] Building level 10
Reconstruction on level 10
[1] Building level 14
[2] Building level 10
Creating AMGLevel 
[0] Building level 11
Reconstruction on level 11
Creating AMGLevel 
[2] Building level 11
[0] Building level 12
Reconstruction on level 12
Creating AMGLevel 
[0] Building level 13
Reconstruction on level 13
[2] Building level 12
Creating AMGLevel 
[0] Building level 14
Reconstruction on level 14
[2] Building level 13
Creating AMGLevel 
14 Level construction complete
[2] Building level 14
initial dot_x = 113654
Iter #1 residual = 0.00144059
Iter #2 residual = 0.000759154
Iter #3 residual = 0.000425651
Iter #4 residual = 0.00025742
Iter #5 residual = 0.000157554
GPU: 5 iters: 1.55795 s: 2.10032 GB/s
GPUAMG:  Solving for pd, Initial residual = 0.00258559, Final residual = 9.90248e-05, No Iterations 5
[3] Building level 0
[1] Building level 0
[0] Building level 0
[2] Building level 0
[0] Building level 1
[1] Building level 1
[2] Building level 1
[3] Building level 1
[3] Building level 2
[2] Building level 2
[0] Building level 2
[1] Building level 2
[2] Building level 3
[3] Building level 3
[1] Building level 3
[0] Building level 3
[2] Building level 4
[3] Building level 4
[1] Building level 4
[0] Building level 4
[3] Building level 5
[2] Building level 5
[1] Building level 5
[0] Building level 5
[3] Building level 6
[2] Building level 6
[1] Building level 6
[3] Building level 7
[2] Building level 7
[1] Building level 7
[0] Building level 6
[3] Building level 8
[1] Building level 8
[2] Building level 8
[3] Building level 9
[3] Building level 10
[1] Building level 9
[2] Building level 9
[3] Building level 11
[3] Building level 12
[3] Building level 13
[1] Building level 10
[2] Building level 10
[3] Building level 14
[1] Building level 11
[2] Building level 11
[1] Building level 12
[2] Building level 12
[1] Building level 13
[1] Building level 14
[2] Building level 13
[2] Building level 14
[0] Building level 7
[0] Building level 8
[0] Building level 9
[0] Building level 10
[0] Building level 11
[0] Building level 12
[0] Building level 13
[0] Building level 14
14 Level construction complete
initial dot_x = 119517
Iter #1 residual = 0.00124684
Iter #2 residual = 0.000639966
Iter #3 residual = 0.000355135
Iter #4 residual = 0.000211648
Iter #5 residual = 0.000128271
Iter #6 residual = 7.98606e-05
GPU: 6 iters: 1.81936 s: 2.15825 GB/s
GPUAMG:  Solving for pd, Initial residual = 0.00100832, Final residual = 4.99254e-05, No Iterations 6
[0] Building level 0
[2] Building level 0
[1] Building level 0
[3] Building level 0
[2] Building level 1
[3] Building level 1
[0] Building level 1
[1] Building level 1
[0] Building level 2
[1] Building level 2
[3] Building level 2
[2] Building level 2
[1] Building level 3
[3] Building level 3
[2] Building level 3
[0] Building level 3
[1] Building level 4
[3] Building level 4
[2] Building level 4
[0] Building level 4
[1] Building level 5
[3] Building level 5
[0] Building level 5
[2] Building level 5
[1] Building level 6
[3] Building level 6
[1] Building level 7
[0] Building level 6
[2] Building level 6
[1] Building level 8
[3] Building level 7
[1] Building level 9
[1] Building level 10
[1] Building level 11
[1] Building level 12
[1] Building level 13
[1] Building level 14
[0] Building level 7
[3] Building level 8
[2] Building level 7
[3] Building level 9
[3] Building level 10
[0] Building level 8
[3] Building level 11
[3] Building level 12
[3] Building level 13
[3] Building level 14
[2] Building level 8
[0] Building level 9
[0] Building level 10
[2] Building level 9
[0] Building level 11
[0] Building level 12
[0] Building level 13
[0] Building level 14
14 Level construction complete
[2] Building level 10
[2] Building level 11
[2] Building level 12
[2] Building level 13
[2] Building level 14
initial dot_x = 114600
Iter #1 residual = 0.000159404
Iter #2 residual = 9.21411e-05
Iter #3 residual = 5.45826e-05
Iter #4 residual = 3.42781e-05
Iter #5 residual = 2.13351e-05
Iter #6 residual = 1.34817e-05
Iter #7 residual = 8.40439e-06
Iter #8 residual = 5.22669e-06
Iter #9 residual = 3.29881e-06
Iter #10 residual = 2.14644e-06
Iter #11 residual = 1.46189e-06
Iter #12 residual = 1.00597e-06
Iter #13 residual = 7.2346e-07
Iter #14 residual = 5.1713e-07
Iter #15 residual = 3.88725e-07
Iter #16 residual = 2.85135e-07
Iter #17 residual = 2.16178e-07
Iter #18 residual = 1.5982e-07
Iter #19 residual = 1.19478e-07
Iter #20 residual = 1.08284e-07
GPU: 20 iters: 5.44401 s: 2.40425 GB/s
GPUAMG:  Solving for pd, Initial residual = 0.000337607, Final residual = 6.24566e-08, No Iterations 20
time step continuity errors : sum local = 2.86516e-12, global = -3.72745e-24, cumulative = -1.25317e-23
ExecutionTime = 632.51 s  ClockTime = 651 s

End

Finalising parallel run
