 Data for JOB [57018,1] offset 0

 ========================   JOB MAP   ========================

 Data for node: ivb106	Num slots: 4	Max slots: 0	Num procs: 4
 	Process OMPI jobid: [57018,1] App: 0 Process rank: 0
 	Process OMPI jobid: [57018,1] App: 0 Process rank: 1
 	Process OMPI jobid: [57018,1] App: 0 Process rank: 2
 	Process OMPI jobid: [57018,1] App: 0 Process rank: 3

 =============================================================
[ivb106:21800] MCW rank 2 bound to socket 0[core 2[hwt 0]]: [././B/././././././.][./././././././././.]
[ivb106:21800] MCW rank 3 bound to socket 0[core 3[hwt 0]]: [./././B/./././././.][./././././././././.]
[ivb106:21800] MCW rank 0 bound to socket 0[core 0[hwt 0]]: [B/././././././././.][./././././././././.]
[ivb106:21800] MCW rank 1 bound to socket 0[core 1[hwt 0]]: [./B/./././././././.][./././././././././.]
/*---------------------------------------------------------------------------*\
| =========                 |                                                 |
| \\      /  F ield         | foam-extend: Open Source CFD                    |
|  \\    /   O peration     | Version:     3.1                                |
|   \\  /    A nd           | Web:         http://www.extend-project.de       |
|    \\/     M anipulation  |                                                 |
\*---------------------------------------------------------------------------*/
Build    : 3.1-e2da948002a2
Exec     : interFoam -parallel
Date     : May 21 2016
Time     : 07:27:57
Host     : ivb106
PID      : 21834
CtrlDict : /home-2/vplatonov/foam/foam-extend-3.1/etc/controlDict
Case     : /home/vplatonov/tests/rt12mln
nProcs   : 4
Slaves : 
3
(
ivb106.21839
ivb106.21835
ivb106.21842
)

Pstream initialized with:
    floatTransfer     : 0
    nProcsSimpleSum   : 0
    commsType         : blocking
SigFpe   : Enabling floating point exception trapping (FOAM_SIGFPE).

// * * * * * * * * * * * * * * * * * * * * * * * * * * * * * * * * * * * * * //
Create time

Create mesh for time = 0


Reading g
Reading field pd

Reading field alpha1

Reading field U

Reading/calculating face flux field phi

Reading transportProperties

Selecting incompressible transport model Newtonian
Selecting incompressible transport model Newtonian
Calculating field g.h

Selecting turbulence model type laminar
time step continuity errors : sum local = 0, global = 0, cumulative = 0
Created persistent data with name pcorr
GPUAMG:  Solving for pcorr, Initial residual = 0, Final residual = 0, No Iterations 0
time step continuity errors : sum local = 0, global = 0, cumulative = 0
Courant Number mean: 0 max: 0 velocity magnitude: 0

Starting time loop

Courant Number mean: 0 max: 0 velocity magnitude: 0
Time = 0.001

MULES: Solving for alpha1
Liquid phase volume fraction = 0.00275421  Min(alpha1) = 0  Max(alpha1) = 1
MULES: Solving for alpha1
Liquid phase volume fraction = 0.00275421  Min(alpha1) = 0  Max(alpha1) = 1
Created persistent data with name pd
[0] Building level 0
[1] Building level 0
[2] Building level 0
[3] Building level 0
[1] Building level 1
[2] Building level 1
Creating AMGLevel 
[3] Building level 1
[0] Building level 1
[1] Building level 2
[2] Building level 2
[3] Building level 2
Creating AMGLevel 
[0] Building level 2
[1] Building level 3
[2] Building level 3
[3] Building level 3
Creating AMGLevel 
[0] Building level 3
[1] Building level 4
[2] Building level 4
[3] Building level 4
Creating AMGLevel 
[0] Building level 4
[1] Building level 5
[2] Building level 5
[3] Building level 5
[1] Building level 6
[2] Building level 6
Creating AMGLevel 
[0] Building level 5
[1] Building level 7
[2] Building level 7
[3] Building level 6
[1] Building level 8
[2] Building level 8
[1] Building level 9
[2] Building level 9
[1] Building level 10
[2] Building level 10
[1] Building level 11
[3] Building level 7
[1] Building level 12
[2] Building level 11
[1] Building level 13
Creating AMGLevel 
[1] Building level 14
[0] Building level 6
[2] Building level 12
[2] Building level 13
[2] Building level 14
[3] Building level 8
[3] Building level 9
[3] Building level 10
[3] Building level 11
[3] Building level 12
Creating AMGLevel 
[0] Building level 7
[3] Building level 13
[3] Building level 14
Creating AMGLevel 
[0] Building level 8
Creating AMGLevel 
[0] Building level 9
Creating AMGLevel 
[0] Building level 10
Creating AMGLevel 
[0] Building level 11
Creating AMGLevel 
[0] Building level 12
Creating AMGLevel 
[0] Building level 13
Creating AMGLevel 
[0] Building level 14
Creating AMGLevel 
14 Level construction complete
initial dot_x = 0
Iter #1 residual = 0.0732926
GPU: 1 iters: 0.561233 s: 1.16607 GB/s
GPUAMG:  Solving for pd, Initial residual = 1, Final residual = 0.0271103, No Iterations 1
[2] Building level 0
[0] Building level 0
[3] Building level 0
[1] Building level 0
[3] Building level 1
[1] Building level 1
[2] Building level 1
[0] Building level 1
[0] Building level 2
[3] Building level 2
[2] Building level 2
[1] Building level 2
[3] Building level 3
[0] Building level 3
[1] Building level 3
[2] Building level 3
[2] Building level 4
[3] Building level 4
[0] Building level 4
[1] Building level 4
[2] Building level 5
[3] Building level 5
[0] Building level 5
[1] Building level 5
[2] Building level 6
[3] Building level 6
[0] Building level 6
[1] Building level 6
[2] Building level 7
[3] Building level 7
[0] Building level 7
[1] Building level 7
[2] Building level 8
[3] Building level 8
[2] Building level 9
[0] Building level 8
[2] Building level 10
[3] Building level 9
[1] Building level 8
[2] Building level 11
[2] Building level 12
[2] Building level 13
[3] Building level 10
[2] Building level 14
[0] Building level 9
[3] Building level 11
[3] Building level 12
[1] Building level 9
[3] Building level 13
[3] Building level 14
[0] Building level 10
[0] Building level 11
[1] Building level 10
[0] Building level 12
[0] Building level 13
[1] Building level 11
[0] Building level 14
14 Level construction complete
[1] Building level 12
[1] Building level 13
[1] Building level 14
initial dot_x = 75628.8
Iter #1 residual = 0.00835607
Iter #2 residual = 0.00430136
Iter #3 residual = 0.0022966
Iter #4 residual = 0.00122668
GPU: 4 iters: 1.40723 s: 1.86022 GB/s
GPUAMG:  Solving for pd, Initial residual = 0.019502, Final residual = 0.000642468, No Iterations 4
[1] Building level 0
[3] Building level 0
[2] Building level 0
[0] Building level 0
[3] Building level 1
[2] Building level 1
[1] Building level 1
[0] Building level 1
[0] Building level 2
[3] Building level 2
[1] Building level 2
[2] Building level 2
[3] Building level 3
[1] Building level 3
[0] Building level 3
[2] Building level 3
[3] Building level 4
[2] Building level 4
[0] Building level 4
[1] Building level 4
[3] Building level 5
[2] Building level 5
[0] Building level 5
[1] Building level 5
[3] Building level 6
[2] Building level 6
[1] Building level 6
[0] Building level 6
[3] Building level 7
[2] Building level 7
[3] Building level 8
[1] Building level 7
[0] Building level 7
[3] Building level 9
[2] Building level 8
[3] Building level 10
[3] Building level 11
[3] Building level 12
[3] Building level 13
[3] Building level 14
[2] Building level 9
[1] Building level 8
[0] Building level 8
[2] Building level 10
[2] Building level 11
[2] Building level 12
[2] Building level 13
[2] Building level 14
[0] Building level 9
[1] Building level 9
[1] Building level 10
[0] Building level 10
[1] Building level 11
[0] Building level 11
[1] Building level 12
[0] Building level 12
[1] Building level 13
[0] Building level 13
[1] Building level 14
[0] Building level 14
14 Level construction complete
initial dot_x = 127715
Iter #1 residual = 0.00249747
Iter #2 residual = 0.00114307
Iter #3 residual = 0.000554408
Iter #4 residual = 0.000276878
Iter #5 residual = 0.000144409
Iter #6 residual = 8.18276e-05
Iter #7 residual = 5.0088e-05
Iter #8 residual = 3.08922e-05
Iter #9 residual = 1.97421e-05
Iter #10 residual = 1.27203e-05
Iter #11 residual = 8.37798e-06
Iter #12 residual = 5.59736e-06
Iter #13 residual = 3.81982e-06
Iter #14 residual = 2.68201e-06
Iter #15 residual = 1.97194e-06
Iter #16 residual = 1.48159e-06
Iter #17 residual = 1.14924e-06
Iter #18 residual = 9.04877e-07
Iter #19 residual = 7.20457e-07
Iter #20 residual = 5.81583e-07
Iter #21 residual = 4.67536e-07
Iter #22 residual = 3.8509e-07
Iter #23 residual = 3.09878e-07
Iter #24 residual = 2.60081e-07
Iter #25 residual = 2.07859e-07
Iter #26 residual = 1.82493e-07
Iter #27 residual = 1.39595e-07
Iter #28 residual = 1.33507e-07
GPU: 28 iters: 8.11089 s: 2.25922 GB/s
GPUAMG:  Solving for pd, Initial residual = 0.00621856, Final residual = 9.43414e-08, No Iterations 28
time step continuity errors : sum local = 7.01192e-12, global = -4.47229e-25, cumulative = -4.47229e-25
ExecutionTime = 91.68 s  ClockTime = 104 s

Courant Number mean: 4.8759e-06 max: 0.00216224 velocity magnitude: 0.033785
Time = 0.002

MULES: Solving for alpha1
Liquid phase volume fraction = 0.00275421  Min(alpha1) = 0  Max(alpha1) = 1
MULES: Solving for alpha1
Liquid phase volume fraction = 0.00275421  Min(alpha1) = 0  Max(alpha1) = 1
[1] Building level 0
[3] Building level 0
[0] Building level 0
[2] Building level 0
[3] Building level 1
[1] Building level 1
[2] Building level 1
[0] Building level 1
Reconstruction on level 1
[1] Building level 2
[2] Building level 2
Creating AMGLevel 
[3] Building level 2
[0] Building level 2
Reconstruction on level 2
[1] Building level 3
[2] Building level 3
[3] Building level 3
Creating AMGLevel 
[0] Building level 3
Reconstruction on level 3
[1] Building level 4
[2] Building level 4
[3] Building level 4
Creating AMGLevel 
[0] Building level 4
Reconstruction on level 4
[1] Building level 5
[2] Building level 5
[1] Building level 6
[3] Building level 5
Creating AMGLevel 
[0] Building level 5
Reconstruction on level 5
[1] Building level 7
[2] Building level 6
[1] Building level 8
[1] Building level 9
[1] Building level 10
[2] Building level 7
[3] Building level 6
[1] Building level 11
[1] Building level 12
Creating AMGLevel 
[1] Building level 13
[0] Building level 6
Reconstruction on level 6
[1] Building level 14
[2] Building level 8
[2] Building level 9
[2] Building level 10
[3] Building level 7
[2] Building level 11
[2] Building level 12
[2] Building level 13
[2] Building level 14
Creating AMGLevel 
[0] Building level 7
Reconstruction on level 7
[3] Building level 8
[3] Building level 9
Creating AMGLevel 
[0] Building level 8
Reconstruction on level 8
[3] Building level 10
[3] Building level 11
[3] Building level 12
Creating AMGLevel 
[0] Building level 9
Reconstruction on level 9
[3] Building level 13
[3] Building level 14
Creating AMGLevel 
[0] Building level 10
Reconstruction on level 10
Creating AMGLevel 
[0] Building level 11
Reconstruction on level 11
Creating AMGLevel 
[0] Building level 12
Reconstruction on level 12
Creating AMGLevel 
[0] Building level 13
Reconstruction on level 13
Creating AMGLevel 
[0] Building level 14
Reconstruction on level 14
Creating AMGLevel 
14 Level construction complete
initial dot_x = 114439
Iter #1 residual = 0.000812138
Iter #2 residual = 0.000402861
Iter #3 residual = 0.000222216
GPU: 3 iters: 1.10505 s: 1.77667 GB/s
GPUAMG:  Solving for pd, Initial residual = 0.00335941, Final residual = 0.000127333, No Iterations 3
[1] Building level 0
[0] Building level 0
[3] Building level 0
[2] Building level 0
[3] Building level 1
[0] Building level 1
[2] Building level 1
[1] Building level 1
[3] Building level 2
[0] Building level 2
[2] Building level 2
[1] Building level 2
[3] Building level 3
[0] Building level 3
[1] Building level 3
[2] Building level 3
[3] Building level 4
[1] Building level 4
[0] Building level 4
[2] Building level 4
[3] Building level 5
[1] Building level 5
[0] Building level 5
[2] Building level 5
[1] Building level 6
[3] Building level 6
[0] Building level 6
[1] Building level 7
[3] Building level 7
[1] Building level 8
[2] Building level 6
[0] Building level 7
[1] Building level 9
[3] Building level 8
[1] Building level 10
[1] Building level 11
[1] Building level 12
[1] Building level 13
[1] Building level 14
[0] Building level 8
[3] Building level 9
[3] Building level 10
[3] Building level 11
[0] Building level 9
[3] Building level 12
[3] Building level 13
[2] Building level 7
[3] Building level 14
[0] Building level 10
[0] Building level 11
[0] Building level 12
[0] Building level 13
[0] Building level 14
14 Level construction complete
[2] Building level 8
[2] Building level 9
[2] Building level 10
[2] Building level 11
[2] Building level 12
[2] Building level 13
[2] Building level 14
initial dot_x = 117982
Iter #1 residual = 0.000556707
Iter #2 residual = 0.000277312
Iter #3 residual = 0.000163957
Iter #4 residual = 0.000124381
GPU: 4 iters: 1.39128 s: 1.88154 GB/s
GPUAMG:  Solving for pd, Initial residual = 0.00211741, Final residual = 9.39859e-05, No Iterations 4
[3] Building level 0
[2] Building level 0
[1] Building level 0
[0] Building level 0
[3] Building level 1
[0] Building level 1
[2] Building level 1
[1] Building level 1
[3] Building level 2
[0] Building level 2
[2] Building level 2
[1] Building level 2
[3] Building level 3
[2] Building level 3
[1] Building level 3
[0] Building level 3
[3] Building level 4
[1] Building level 4
[0] Building level 4
[2] Building level 4
[3] Building level 5
[1] Building level 5
[0] Building level 5
[2] Building level 5
[1] Building level 6
[3] Building level 6
[0] Building level 6
[1] Building level 7
[3] Building level 7
[2] Building level 6
[1] Building level 8
[0] Building level 7
[1] Building level 9
[3] Building level 8
[1] Building level 10
[1] Building level 11
[1] Building level 12
[1] Building level 13
[1] Building level 14
[3] Building level 9
[0] Building level 8
[3] Building level 10
[3] Building level 11
[3] Building level 12
[3] Building level 13
[3] Building level 14
[2] Building level 7
[0] Building level 9
[0] Building level 10
[0] Building level 11
[0] Building level 12
[0] Building level 13
[0] Building level 14
14 Level construction complete
[2] Building level 8
[2] Building level 9
[2] Building level 10
[2] Building level 11
[2] Building level 12
[2] Building level 13
[2] Building level 14
initial dot_x = 113716
Iter #1 residual = 0.000878234
Iter #2 residual = 0.000548465
Iter #3 residual = 0.000307834
Iter #4 residual = 0.000204791
Iter #5 residual = 0.000158765
Iter #6 residual = 0.00012832
Iter #7 residual = 0.000104228
Iter #8 residual = 8.54684e-05
Iter #9 residual = 6.83403e-05
Iter #10 residual = 4.76262e-05
Iter #11 residual = 2.85841e-05
Iter #12 residual = 1.91201e-05
Iter #13 residual = 1.29009e-05
Iter #14 residual = 9.12842e-06
Iter #15 residual = 6.18847e-06
Iter #16 residual = 4.62728e-06
Iter #17 residual = 3.06718e-06
Iter #18 residual = 2.09369e-06
Iter #19 residual = 1.50646e-06
Iter #20 residual = 1.27882e-06
Iter #21 residual = 9.60434e-07
Iter #22 residual = 8.21821e-07
Iter #23 residual = 6.77591e-07
Iter #24 residual = 6.03557e-07
Iter #25 residual = 4.87957e-07
Iter #26 residual = 4.28831e-07
Iter #27 residual = 3.13669e-07
Iter #28 residual = 2.55293e-07
Iter #29 residual = 1.79418e-07
Iter #30 residual = 1.06673e-07
GPU: 30 iters: 8.57655 s: 2.28916 GB/s
GPUAMG:  Solving for pd, Initial residual = 0.00194617, Final residual = 6.83204e-08, No Iterations 30
time step continuity errors : sum local = 3.2193e-12, global = 3.22954e-25, cumulative = -1.24275e-25
ExecutionTime = 151.71 s  ClockTime = 166 s

Courant Number mean: 7.67683e-06 max: 0.00313309 velocity magnitude: 0.0489545
Time = 0.003

MULES: Solving for alpha1
Liquid phase volume fraction = 0.00275421  Min(alpha1) = -1.7631e-31  Max(alpha1) = 1
MULES: Solving for alpha1
Liquid phase volume fraction = 0.00275421  Min(alpha1) = -6.62959e-30  Max(alpha1) = 1
[0] Building level 0
[3] Building level 0
[2] Building level 0
[1] Building level 0
[3] Building level 1
[1] Building level 1
[0] Building level 1
Reconstruction on level 1
[2] Building level 1
[1] Building level 2
[2] Building level 2
[1] Building level 3
[2] Building level 3
Creating AMGLevel 
[3] Building level 2
[0] Building level 2
[0] Building level 3
Reconstruction on level 3
[1] Building level 4
[2] Building level 4
[1] Building level 5
[2] Building level 5
[1] Building level 6
Creating AMGLevel 
[0] Building level 4
Reconstruction on level 4
[3] Building level 3
[2] Building level 6
[1] Building level 7
[1] Building level 8
[2] Building level 7
[1] Building level 9
[1] Building level 10
[1] Building level 11
[1] Building level 12
[1] Building level 13
[1] Building level 14
[2] Building level 8
[2] Building level 9
[2] Building level 10
[2] Building level 11
[2] Building level 12
[2] Building level 13
[2] Building level 14
Creating AMGLevel 
[0] Building level 5
Reconstruction on level 5
[3] Building level 4
Creating AMGLevel 
[0] Building level 6
Reconstruction on level 6
Creating AMGLevel 
[0] Building level 7
Reconstruction on level 7
Creating AMGLevel 
[0] Building level 8
Reconstruction on level 8
Creating AMGLevel 
[0] Building level 9
Reconstruction on level 9
[3] Building level 5
Creating AMGLevel 
[0] Building level 10
Reconstruction on level 10
Creating AMGLevel 
[0] Building level 11
Reconstruction on level 11
Creating AMGLevel 
[0] Building level 12
Reconstruction on level 12
Creating AMGLevel 
[0] Building level 13
Reconstruction on level 13
Creating AMGLevel 
[0] Building level 14
Reconstruction on level 14
Creating AMGLevel 
14 Level construction complete
[3] Building level 6
[3] Building level 7
[3] Building level 8
[3] Building level 9
[3] Building level 10
[3] Building level 11
[3] Building level 12
[3] Building level 13
[3] Building level 14
initial dot_x = 113306
Iter #1 residual = 0.00213601
Iter #2 residual = 0.00124522
Iter #3 residual = 0.000694758
Iter #4 residual = 0.000425948
Iter #5 residual = 0.000272808
GPU: 5 iters: 1.66334 s: 1.96724 GB/s
GPUAMG:  Solving for pd, Initial residual = 0.00424692, Final residual = 0.000206761, No Iterations 5
[1] Building level 0
[2] Building level 0
[3] Building level 0
[0] Building level 0
[3] Building level 1
[1] Building level 1
[2] Building level 1
[0] Building level 1
[0] Building level 2
[3] Building level 2
[2] Building level 2
[1] Building level 2
[0] Building level 3
[3] Building level 3
[2] Building level 3
[1] Building level 3
[0] Building level 4
[1] Building level 4
[2] Building level 4
[3] Building level 4
[0] Building level 5
[1] Building level 5
[2] Building level 5
[3] Building level 5
[0] Building level 6
[1] Building level 6
[2] Building level 6
[3] Building level 6
[0] Building level 7
[1] Building level 7
[0] Building level 8
[2] Building level 7
[1] Building level 8
[3] Building level 7
[0] Building level 9
[1] Building level 9
[0] Building level 10
[0] Building level 11
[0] Building level 12
[1] Building level 10
[0] Building level 13
[0] Building level 14
14 Level construction complete
[1] Building level 11
[2] Building level 8
[1] Building level 12
[1] Building level 13
[1] Building level 14
[3] Building level 8
[2] Building level 9
[3] Building level 9
[2] Building level 10
[2] Building level 11
[3] Building level 10
[2] Building level 12
[2] Building level 13
[2] Building level 14
[3] Building level 11
[3] Building level 12
[3] Building level 13
[3] Building level 14
initial dot_x = 120072
Iter #1 residual = 0.00127285
Iter #2 residual = 0.000678503
Iter #3 residual = 0.00035763
Iter #4 residual = 0.000210064
GPU: 4 iters: 1.38889 s: 1.88477 GB/s
GPUAMG:  Solving for pd, Initial residual = 0.00309927, Final residual = 0.00013919, No Iterations 4
[2] Building level 0
[1] Building level 0
[3] Building level 0
[0] Building level 0
[3] Building level 1
[1] Building level 1
[2] Building level 1
[0] Building level 1
[0] Building level 2
[3] Building level 2
[1] Building level 2
[2] Building level 2
[0] Building level 3
[3] Building level 3
[2] Building level 3
[1] Building level 3
[0] Building level 4
[1] Building level 4
[2] Building level 4
[3] Building level 4
[0] Building level 5
[1] Building level 5
[2] Building level 5
[3] Building level 5
[1] Building level 6
[0] Building level 6
[2] Building level 6
[3] Building level 6
[1] Building level 7
[0] Building level 7
[1] Building level 8
[0] Building level 8
[2] Building level 7
[3] Building level 7
[1] Building level 9
[0] Building level 9
[1] Building level 10
[1] Building level 11
[0] Building level 10
[1] Building level 12
[1] Building level 13
[1] Building level 14
[0] Building level 11
[0] Building level 12
[3] Building level 8
[2] Building level 8
[0] Building level 13
[0] Building level 14
14 Level construction complete
[3] Building level 9
[2] Building level 9
[3] Building level 10
[2] Building level 10
[3] Building level 11
[2] Building level 11
[3] Building level 12
[3] Building level 13
[2] Building level 12
[3] Building level 14
[2] Building level 13
[2] Building level 14
initial dot_x = 112716
Iter #1 residual = 0.000468355
Iter #2 residual = 0.000177351
Iter #3 residual = 8.47145e-05
Iter #4 residual = 4.81779e-05
Iter #5 residual = 3.11735e-05
Iter #6 residual = 2.50667e-05
Iter #7 residual = 1.84019e-05
Iter #8 residual = 1.16467e-05
Iter #9 residual = 7.72394e-06
Iter #10 residual = 5.94481e-06
Iter #11 residual = 4.70687e-06
Iter #12 residual = 2.59799e-06
Iter #13 residual = 1.91522e-06
Iter #14 residual = 9.83119e-07
Iter #15 residual = 6.07893e-07
Iter #16 residual = 4.63614e-07
Iter #17 residual = 3.16489e-07
Iter #18 residual = 2.86383e-07
Iter #19 residual = 1.69723e-07
Iter #20 residual = 1.45428e-07
GPU: 20 iters: 5.82447 s: 2.2472 GB/s
GPUAMG:  Solving for pd, Initial residual = 0.00265575, Final residual = 8.10628e-08, No Iterations 20
time step continuity errors : sum local = 3.84092e-12, global = -4.32064e-25, cumulative = -5.56339e-25
ExecutionTime = 208.71 s  ClockTime = 225 s

Courant Number mean: 1.35766e-05 max: 0.00482759 velocity magnitude: 0.0754311
Time = 0.004

MULES: Solving for alpha1
Liquid phase volume fraction = 0.00275421  Min(alpha1) = -1.00213e-29  Max(alpha1) = 1
MULES: Solving for alpha1
Liquid phase volume fraction = 0.00275421  Min(alpha1) = -2.44017e-33  Max(alpha1) = 1
[2] Building level 0
[3] Building level 0
[1] Building level 0
[0] Building level 0
[2] Building level 1
[3] Building level 1
[1] Building level 1
[0] Building level 1
[0] Building level 2
Reconstruction on level 2
[1] Building level 2
Creating AMGLevel 
[0] Building level 3
Reconstruction on level 3
[1] Building level 3
[2] Building level 2
[3] Building level 2
[1] Building level 4
Creating AMGLevel 
[0] Building level 4
Reconstruction on level 4
[1] Building level 5
Creating AMGLevel 
[0] Building level 5
Reconstruction on level 5
[1] Building level 6
[2] Building level 3
[3] Building level 3
Creating AMGLevel 
[0] Building level 6
Reconstruction on level 6
[1] Building level 7
[1] Building level 8
[1] Building level 9
[1] Building level 10
[1] Building level 11
[1] Building level 12
[1] Building level 13
[1] Building level 14
Creating AMGLevel 
[0] Building level 7
Reconstruction on level 7
Creating AMGLevel 
[0] Building level 8
Reconstruction on level 8
Creating AMGLevel 
[0] Building level 9
Reconstruction on level 9
Creating AMGLevel 
[0] Building level 10
Reconstruction on level 10
Creating AMGLevel 
[0] Building level 11
Reconstruction on level 11
Creating AMGLevel 
[0] Building level 12
Reconstruction on level 12
Creating AMGLevel 
[0] Building level 13
Reconstruction on level 13
Creating AMGLevel 
[0] Building level 14
Reconstruction on level 14
Creating AMGLevel 
14 Level construction complete
[2] Building level 4
[3] Building level 4
[2] Building level 5
[3] Building level 5
[2] Building level 6
[3] Building level 6
[2] Building level 7
[3] Building level 7
[2] Building level 8
[2] Building level 9
[3] Building level 8
[2] Building level 10
[2] Building level 11
[3] Building level 9
[2] Building level 12
[2] Building level 13
[2] Building level 14
[3] Building level 10
[3] Building level 11
[3] Building level 12
[3] Building level 13
[3] Building level 14
initial dot_x = 114151
Iter #1 residual = 0.00138295
Iter #2 residual = 0.000803113
Iter #3 residual = 0.00045147
Iter #4 residual = 0.000274867
GPU: 4 iters: 1.37153 s: 1.90864 GB/s
GPUAMG:  Solving for pd, Initial residual = 0.00342664, Final residual = 0.00016566, No Iterations 4
[1] Building level 0
[2] Building level 0
[3] Building level 0
[0] Building level 0
[3] Building level 1
[2] Building level 1
[1] Building level 1
[0] Building level 1
[3] Building level 2
[0] Building level 2
[2] Building level 2
[1] Building level 2
[3] Building level 3
[0] Building level 3
[2] Building level 3
[1] Building level 3
[3] Building level 4
[0] Building level 4
[1] Building level 4
[2] Building level 4
[3] Building level 5
[0] Building level 5
[1] Building level 5
[2] Building level 5
[3] Building level 6
[0] Building level 6
[1] Building level 6
[2] Building level 6
[3] Building level 7
[0] Building level 7
[1] Building level 7
[3] Building level 8
[0] Building level 8
[3] Building level 9
[2] Building level 7
[3] Building level 10
[1] Building level 8
[0] Building level 9
[3] Building level 11
[3] Building level 12
[3] Building level 13
[3] Building level 14
[0] Building level 10
[0] Building level 11
[1] Building level 9
[0] Building level 12
[0] Building level 13
[0] Building level 14
14 Level construction complete
[1] Building level 10
[1] Building level 11
[2] Building level 8
[1] Building level 12
[1] Building level 13
[1] Building level 14
[2] Building level 9
[2] Building level 10
[2] Building level 11
[2] Building level 12
[2] Building level 13
[2] Building level 14
initial dot_x = 120353
Iter #1 residual = 0.00201342
Iter #2 residual = 0.00119382
Iter #3 residual = 0.000661995
Iter #4 residual = 0.00040276
Iter #5 residual = 0.000239943
GPU: 5 iters: 1.64719 s: 1.98653 GB/s
GPUAMG:  Solving for pd, Initial residual = 0.00325137, Final residual = 0.000148867, No Iterations 5
[3] Building level 0
[2] Building level 0
[1] Building level 0
[0] Building level 0
[3] Building level 1
[2] Building level 1
[1] Building level 1
[0] Building level 1
[3] Building level 2
[2] Building level 2
[0] Building level 2
[1] Building level 2
[3] Building level 3
[2] Building level 3
[0] Building level 3
[1] Building level 3
[3] Building level 4
[1] Building level 4
[0] Building level 4
[2] Building level 4
[1] Building level 5
[3] Building level 5
[0] Building level 5
[2] Building level 5
[1] Building level 6
[3] Building level 6
[0] Building level 6
[2] Building level 6
[1] Building level 7
[3] Building level 7
[1] Building level 8
[0] Building level 7
[3] Building level 8
[2] Building level 7
[1] Building level 9
[1] Building level 10
[1] Building level 11
[3] Building level 9
[1] Building level 12
[1] Building level 13
[1] Building level 14
[3] Building level 10
[0] Building level 8
[3] Building level 11
[2] Building level 8
[3] Building level 12
[3] Building level 13
[3] Building level 14
[0] Building level 9
[2] Building level 9
[0] Building level 10
[2] Building level 10
[0] Building level 11
[0] Building level 12
[2] Building level 11
[0] Building level 13
[0] Building level 14
14 Level construction complete
[2] Building level 12
[2] Building level 13
[2] Building level 14
initial dot_x = 113939
Iter #1 residual = 0.000835642
Iter #2 residual = 0.000472078
Iter #3 residual = 0.000241764
Iter #4 residual = 0.000142698
Iter #5 residual = 8.1617e-05
Iter #6 residual = 4.99682e-05
Iter #7 residual = 2.99269e-05
Iter #8 residual = 1.86614e-05
Iter #9 residual = 1.14338e-05
Iter #10 residual = 7.1907e-06
Iter #11 residual = 4.45553e-06
Iter #12 residual = 2.7894e-06
Iter #13 residual = 1.7312e-06
Iter #14 residual = 1.07291e-06
Iter #15 residual = 6.72408e-07
Iter #16 residual = 4.22157e-07
Iter #17 residual = 2.7695e-07
Iter #18 residual = 1.77363e-07
Iter #19 residual = 1.34792e-07
GPU: 19 iters: 5.47284 s: 2.272 GB/s
GPUAMG:  Solving for pd, Initial residual = 0.00244742, Final residual = 7.1783e-08, No Iterations 19
time step continuity errors : sum local = 3.35338e-12, global = -1.90334e-24, cumulative = -2.45968e-24
ExecutionTime = 265.63 s  ClockTime = 284 s

Courant Number mean: 1.92538e-05 max: 0.0059821 velocity magnitude: 0.0934703
Time = 0.005

MULES: Solving for alpha1
Liquid phase volume fraction = 0.00275421  Min(alpha1) = -5.91646e-33  Max(alpha1) = 1
MULES: Solving for alpha1
Liquid phase volume fraction = 0.00275421  Min(alpha1) = -1.71121e-29  Max(alpha1) = 1
[0] Building level 0
[3] Building level 0
[1] Building level 0
[2] Building level 0
[3] Building level 1
[0] Building level 1
[2] Building level 1
[1] Building level 1
[0] Building level 2
Reconstruction on level 2
[1] Building level 2
[1] Building level 3
Creating AMGLevel 
[0] Building level 3
Reconstruction on level 3
[2] Building level 2
[3] Building level 2
[1] Building level 4
Creating AMGLevel 
[0] Building level 4
Reconstruction on level 4
[1] Building level 5
Creating AMGLevel 
[0] Building level 5
Reconstruction on level 5
[1] Building level 6
[2] Building level 3
[3] Building level 3
[1] Building level 7
Creating AMGLevel 
[0] Building level 6
Reconstruction on level 6
[1] Building level 8
[1] Building level 9
[1] Building level 10
[1] Building level 11
[1] Building level 12
[1] Building level 13
[1] Building level 14
Creating AMGLevel 
[0] Building level 7
Reconstruction on level 7
Creating AMGLevel 
[0] Building level 8
Reconstruction on level 8
Creating AMGLevel 
[0] Building level 9
Reconstruction on level 9
Creating AMGLevel 
[0] Building level 10
Reconstruction on level 10
Creating AMGLevel 
[0] Building level 11
Reconstruction on level 11
Creating AMGLevel 
[0] Building level 12
Reconstruction on level 12
Creating AMGLevel 
[0] Building level 13
Reconstruction on level 13
Creating AMGLevel 
[0] Building level 14
Reconstruction on level 14
Creating AMGLevel 
14 Level construction complete
[2] Building level 4
[3] Building level 4
[2] Building level 5
[3] Building level 5
[2] Building level 6
[3] Building level 6
[2] Building level 7
[3] Building level 7
[2] Building level 8
[2] Building level 9
[3] Building level 8
[2] Building level 10
[2] Building level 11
[2] Building level 12
[2] Building level 13
[2] Building level 14
[3] Building level 9
[3] Building level 10
[3] Building level 11
[3] Building level 12
[3] Building level 13
[3] Building level 14
initial dot_x = 114548
Iter #1 residual = 0.00125388
Iter #2 residual = 0.00067605
Iter #3 residual = 0.00039689
Iter #4 residual = 0.000221484
Iter #5 residual = 0.000149423
Iter #6 residual = 0.000112776
GPU: 6 iters: 1.9228 s: 2.04214 GB/s
GPUAMG:  Solving for pd, Initial residual = 0.00216818, Final residual = 9.16359e-05, No Iterations 6
[2] Building level 0
[3] Building level 0
[1] Building level 0
[0] Building level 0
[2] Building level 1
[1] Building level 1
[3] Building level 1
[0] Building level 1
[0] Building level 2
[3] Building level 2
[1] Building level 2
[2] Building level 2
[0] Building level 3
[3] Building level 3
[2] Building level 3
[1] Building level 3
[0] Building level 4
[1] Building level 4
[3] Building level 4
[2] Building level 4
[1] Building level 5
[0] Building level 5
[3] Building level 5
[2] Building level 5
[0] Building level 6
[1] Building level 6
[3] Building level 6
[0] Building level 7
[1] Building level 7
[2] Building level 6
[0] Building level 8
[1] Building level 8
[3] Building level 7
[1] Building level 9
[0] Building level 9
[1] Building level 10
[0] Building level 10
[1] Building level 11
[1] Building level 12
[0] Building level 11
[1] Building level 13
[1] Building level 14
[0] Building level 12
[0] Building level 13
[3] Building level 8
[0] Building level 14
[2] Building level 7
14 Level construction complete
[3] Building level 9
[3] Building level 10
[3] Building level 11
[3] Building level 12
[3] Building level 13
[3] Building level 14
[2] Building level 8
[2] Building level 9
[2] Building level 10
[2] Building level 11
[2] Building level 12
[2] Building level 13
[2] Building level 14
initial dot_x = 120722
Iter #1 residual = 0.00102802
Iter #2 residual = 0.000509586
Iter #3 residual = 0.000340577
Iter #4 residual = 0.000261771
Iter #5 residual = 0.000201747
Iter #6 residual = 0.000167348
Iter #7 residual = 0.000139175
Iter #8 residual = 0.000121112
Iter #9 residual = 0.00010176
GPU: 9 iters: 2.75941 s: 2.13449 GB/s
GPUAMG:  Solving for pd, Initial residual = 0.00179951, Final residual = 8.74869e-05, No Iterations 9
[3] Building level 0
[2] Building level 0
[0] Building level 0
[1] Building level 0
[3] Building level 1
[2] Building level 1
[1] Building level 1
[0] Building level 1
[0] Building level 2
[2] Building level 2
[3] Building level 2
[1] Building level 2
[0] Building level 3
[2] Building level 3
[3] Building level 3
[1] Building level 3
[0] Building level 4
[1] Building level 4
[3] Building level 4
[2] Building level 4
[1] Building level 5
[0] Building level 5
[3] Building level 5
[2] Building level 5
[1] Building level 6
[0] Building level 6
[3] Building level 6
[1] Building level 7
[2] Building level 6
[0] Building level 7
[1] Building level 8
[0] Building level 8
[1] Building level 9
[3] Building level 7
[1] Building level 10
[0] Building level 9
[1] Building level 11
[1] Building level 12
[1] Building level 13
[2] Building level 7
[1] Building level 14
[0] Building level 10
[0] Building level 11
[0] Building level 12
[0] Building level 13
[0] Building level 14
14 Level construction complete
[3] Building level 8
[2] Building level 8
[3] Building level 9
[3] Building level 10
[3] Building level 11
[2] Building level 9
[3] Building level 12
[3] Building level 13
[3] Building level 14
[2] Building level 10
[2] Building level 11
[2] Building level 12
[2] Building level 13
[2] Building level 14
initial dot_x = 113610
Iter #1 residual = 0.000544401
Iter #2 residual = 0.000411433
Iter #3 residual = 0.000320446
Iter #4 residual = 0.000257913
Iter #5 residual = 0.00021642
Iter #6 residual = 0.000165722
Iter #7 residual = 0.000113835
Iter #8 residual = 7.67623e-05
Iter #9 residual = 6.25185e-05
Iter #10 residual = 4.35875e-05
Iter #11 residual = 3.05251e-05
Iter #12 residual = 2.44815e-05
Iter #13 residual = 1.65293e-05
Iter #14 residual = 1.23748e-05
Iter #15 residual = 9.48773e-06
Iter #16 residual = 8.22518e-06
Iter #17 residual = 6.42114e-06
Iter #18 residual = 5.08706e-06
Iter #19 residual = 4.44249e-06
Iter #20 residual = 3.24732e-06
Iter #21 residual = 2.43705e-06
Iter #22 residual = 1.949e-06
Iter #23 residual = 1.43453e-06
Iter #24 residual = 1.07896e-06
Iter #25 residual = 9.7206e-07
Iter #26 residual = 7.57324e-07
Iter #27 residual = 6.63337e-07
Iter #28 residual = 5.09187e-07
Iter #29 residual = 4.33092e-07
Iter #30 residual = 3.76779e-07
Iter #31 residual = 2.94272e-07
Iter #32 residual = 5.14532e-07
Iter #33 residual = 2.73076e-07
Iter #34 residual = 3.61051e-07
Iter #35 residual = 1.60084e-07
Iter #36 residual = 1.49316e-07
GPU: 36 iters: 10.2218 s: 2.30485 GB/s
GPUAMG:  Solving for pd, Initial residual = 0.00147488, Final residual = 9.62949e-08, No Iterations 36
time step continuity errors : sum local = 4.68735e-12, global = -4.03805e-24, cumulative = -6.49773e-24
ExecutionTime = 328.73 s  ClockTime = 349 s

Courant Number mean: 2.43943e-05 max: 0.00684035 velocity magnitude: 0.10688
Time = 0.006

MULES: Solving for alpha1
Liquid phase volume fraction = 0.00275421  Min(alpha1) = -3.1992e-30  Max(alpha1) = 1
MULES: Solving for alpha1
Liquid phase volume fraction = 0.00275421  Min(alpha1) = -2.28658e-29  Max(alpha1) = 1
[0] Building level 0
[2] Building level 0
[1] Building level 0
[3] Building level 0
[3] Building level 1
[2] Building level 1
[1] Building level 1
[0] Building level 1
[0] Building level 2
Reconstruction on level 2
[1] Building level 2
[1] Building level 3
Creating AMGLevel 
[0] Building level 3
Reconstruction on level 3
[2] Building level 2
[3] Building level 2
[1] Building level 4
Creating AMGLevel 
[0] Building level 4
Reconstruction on level 4
[1] Building level 5
Creating AMGLevel 
[0] Building level 5
Reconstruction on level 5
[2] Building level 3
[1] Building level 6
[3] Building level 3
[1] Building level 7
Creating AMGLevel 
[0] Building level 6
Reconstruction on level 6
[1] Building level 8
[1] Building level 9
[1] Building level 10
[1] Building level 11
[1] Building level 12
[1] Building level 13
[1] Building level 14
Creating AMGLevel 
[0] Building level 7
Reconstruction on level 7
Creating AMGLevel 
[0] Building level 8
Reconstruction on level 8
Creating AMGLevel 
[0] Building level 9
Reconstruction on level 9
Creating AMGLevel 
[0] Building level 10
Reconstruction on level 10
[2] Building level 4
Creating AMGLevel 
[0] Building level 11
Reconstruction on level 11
Creating AMGLevel 
[0] Building level 12
Reconstruction on level 12
Creating AMGLevel 
[0] Building level 13
Reconstruction on level 13
Creating AMGLevel 
[0] Building level 14
Reconstruction on level 14
Creating AMGLevel 
14 Level construction complete
[3] Building level 4
[2] Building level 5
[3] Building level 5
[2] Building level 6
[3] Building level 6
[2] Building level 7
[3] Building level 7
[2] Building level 8
[2] Building level 9
[3] Building level 8
[2] Building level 10
[2] Building level 11
[2] Building level 12
[2] Building level 13
[2] Building level 14
[3] Building level 9
[3] Building level 10
[3] Building level 11
[3] Building level 12
[3] Building level 13
[3] Building level 14
initial dot_x = 114033
Iter #1 residual = 0.00156003
Iter #2 residual = 0.000823573
Iter #3 residual = 0.000466371
Iter #4 residual = 0.000320599
Iter #5 residual = 0.000250642
Iter #6 residual = 0.000195126
Iter #7 residual = 0.000159048
Iter #8 residual = 0.00012944
GPU: 8 iters: 2.42583 s: 2.15823 GB/s
GPUAMG:  Solving for pd, Initial residual = 0.00228532, Final residual = 0.000108632, No Iterations 8
[0] Building level 0
[3] Building level 0
[1] Building level 0
[2] Building level 0
[3] Building level 1
[2] Building level 1
[0] Building level 1
[1] Building level 1
[0] Building level 2
[2] Building level 2
[3] Building level 2
[1] Building level 2
[0] Building level 3
[2] Building level 3
[3] Building level 3
[1] Building level 3
[0] Building level 4
[2] Building level 4
[1] Building level 4
[3] Building level 4
[0] Building level 5
[2] Building level 5
[1] Building level 5
[3] Building level 5
[0] Building level 6
[2] Building level 6
[1] Building level 6
[0] Building level 7
[3] Building level 6
[0] Building level 8
[2] Building level 7
[1] Building level 7
[0] Building level 9
[0] Building level 10
[0] Building level 11
[0] Building level 12
[0] Building level 13
[0] Building level 14
14 Level construction complete
[2] Building level 8
[3] Building level 7
[1] Building level 8
[2] Building level 9
[1] Building level 9
[2] Building level 10
[2] Building level 11
[1] Building level 10
[2] Building level 12
[2] Building level 13
[2] Building level 14
[1] Building level 11
[3] Building level 8
[1] Building level 12
[1] Building level 13
[1] Building level 14
[3] Building level 9
[3] Building level 10
[3] Building level 11
[3] Building level 12
[3] Building level 13
[3] Building level 14
initial dot_x = 119658
Iter #1 residual = 0.00120155
Iter #2 residual = 0.000631029
Iter #3 residual = 0.00038025
Iter #4 residual = 0.000290597
Iter #5 residual = 0.000226476
Iter #6 residual = 0.000181265
Iter #7 residual = 0.000149535
Iter #8 residual = 0.000124551
Iter #9 residual = 0.000103237
Iter #10 residual = 8.64467e-05
Iter #11 residual = 7.18485e-05
GPU: 11 iters: 3.23135 s: 2.2278 GB/s
GPUAMG:  Solving for pd, Initial residual = 0.00119491, Final residual = 5.85576e-05, No Iterations 11
[3] Building level 0
[2] Building level 0
[1] Building level 0
[0] Building level 0
[3] Building level 1
[1] Building level 1
[2] Building level 1
[0] Building level 1
[2] Building level 2
[0] Building level 2
[3] Building level 2
[1] Building level 2
[0] Building level 3
[2] Building level 3
[1] Building level 3
[3] Building level 3
[0] Building level 4
[2] Building level 4
[1] Building level 4
[3] Building level 4
[0] Building level 5
[1] Building level 5
[2] Building level 5
[0] Building level 6
[3] Building level 5
[1] Building level 6
[2] Building level 6
[0] Building level 7
[1] Building level 7
[0] Building level 8
[2] Building level 7
[0] Building level 9
[0] Building level 10
[3] Building level 6
[1] Building level 8
[0] Building level 11
[0] Building level 12
[0] Building level 13
[2] Building level 8
[0] Building level 14
14 Level construction complete
[1] Building level 9
[1] Building level 10
[2] Building level 9
[1] Building level 11
[1] Building level 12
[1] Building level 13
[1] Building level 14
[2] Building level 10
[2] Building level 11
[2] Building level 12
[2] Building level 13
[2] Building level 14
[3] Building level 7
[3] Building level 8
[3] Building level 9
[3] Building level 10
[3] Building level 11
[3] Building level 12
[3] Building level 13
[3] Building level 14
initial dot_x = 114157
Iter #1 residual = 0.000285989
Iter #2 residual = 0.000164537
Iter #3 residual = 0.000116524
Iter #4 residual = 9.19697e-05
Iter #5 residual = 7.60283e-05
Iter #6 residual = 6.34736e-05
Iter #7 residual = 5.36702e-05
Iter #8 residual = 4.49847e-05
Iter #9 residual = 3.64344e-05
Iter #10 residual = 2.62831e-05
Iter #11 residual = 2.12304e-05
Iter #12 residual = 1.76038e-05
Iter #13 residual = 1.49403e-05
Iter #14 residual = 1.26266e-05
Iter #15 residual = 1.07548e-05
Iter #16 residual = 9.16528e-06
Iter #17 residual = 7.93078e-06
Iter #18 residual = 6.84731e-06
Iter #19 residual = 5.96358e-06
Iter #20 residual = 5.08781e-06
Iter #21 residual = 4.28801e-06
Iter #22 residual = 3.57965e-06
Iter #23 residual = 2.90348e-06
Iter #24 residual = 2.44678e-06
Iter #25 residual = 2.06006e-06
Iter #26 residual = 1.76829e-06
Iter #27 residual = 1.51774e-06
Iter #28 residual = 1.28953e-06
Iter #29 residual = 1.1082e-06
Iter #30 residual = 9.66185e-07
Iter #31 residual = 8.49163e-07
Iter #32 residual = 7.46731e-07
Iter #33 residual = 6.57992e-07
Iter #34 residual = 5.50678e-07
Iter #35 residual = 4.24794e-07
Iter #36 residual = 3.60331e-07
Iter #37 residual = 3.05588e-07
Iter #38 residual = 2.55078e-07
Iter #39 residual = 2.06098e-07
Iter #40 residual = 1.66616e-07
Iter #41 residual = 1.40112e-07
Iter #42 residual = 1.21026e-07
Iter #43 residual = 1.05765e-07
GPU: 43 iters: 11.8318 s: 2.3784 GB/s
GPUAMG:  Solving for pd, Initial residual = 0.000737293, Final residual = 8.48921e-08, No Iterations 43
time step continuity errors : sum local = 3.94833e-12, global = -7.03437e-24, cumulative = -1.35321e-23
ExecutionTime = 394.3 s  ClockTime = 417 s

Courant Number mean: 2.95106e-05 max: 0.00764229 velocity magnitude: 0.119411
Time = 0.007

MULES: Solving for alpha1
Liquid phase volume fraction = 0.00275421  Min(alpha1) = -3.22057e-29  Max(alpha1) = 1
MULES: Solving for alpha1
Liquid phase volume fraction = 0.00275421  Min(alpha1) = -8.35995e-31  Max(alpha1) = 1
[1] Building level 0
[2] Building level 0
[3] Building level 0
[0] Building level 0
[3] Building level 1
[2] Building level 1
[0] Building level 1
Reconstruction on level 1
[1] Building level 1
[2] Building level 2
[1] Building level 2
[1] Building level 3
[2] Building level 3
[3] Building level 2
Creating AMGLevel 
[0] Building level 2
Reconstruction on level 2
[2] Building level 4
[1] Building level 4
[2] Building level 5
[1] Building level 5
[3] Building level 3
[2] Building level 6
[1] Building level 6
Creating AMGLevel 
[0] Building level 3
Reconstruction on level 3
[2] Building level 7
[1] Building level 7
[2] Building level 8
[1] Building level 8
[2] Building level 9
[1] Building level 9
[2] Building level 10
[1] Building level 10
[2] Building level 11
[1] Building level 11
[2] Building level 12
[1] Building level 12
[2] Building level 13
[1] Building level 13
[2] Building level 14
[1] Building level 14
Creating AMGLevel 
[3] Building level 4
[0] Building level 4
Reconstruction on level 4
[3] Building level 5
Creating AMGLevel 
[0] Building level 5
Reconstruction on level 5
[3] Building level 6
Creating AMGLevel 
[0] Building level 6
Reconstruction on level 6
[3] Building level 7
Creating AMGLevel 
[0] Building level 7
Reconstruction on level 7
[3] Building level 8
[3] Building level 9
Creating AMGLevel 
[0] Building level 8
Reconstruction on level 8
[3] Building level 10
[3] Building level 11
[3] Building level 12
[3] Building level 13
[3] Building level 14
Creating AMGLevel 
[0] Building level 9
Reconstruction on level 9
Creating AMGLevel 
[0] Building level 10
Reconstruction on level 10
Creating AMGLevel 
[0] Building level 11
Reconstruction on level 11
Creating AMGLevel 
[0] Building level 12
Reconstruction on level 12
Creating AMGLevel 
[0] Building level 13
Reconstruction on level 13
Creating AMGLevel 
[0] Building level 14
Reconstruction on level 14
Creating AMGLevel 
14 Level construction complete
initial dot_x = 113988
Iter #1 residual = 0.00148167
Iter #2 residual = 0.000786271
Iter #3 residual = 0.000446873
Iter #4 residual = 0.000258458
Iter #5 residual = 0.000188078
Iter #6 residual = 0.000152767
Iter #7 residual = 0.000123566
GPU: 7 iters: 2.11067 s: 2.17043 GB/s
GPUAMG:  Solving for pd, Initial residual = 0.00232862, Final residual = 0.000102928, No Iterations 7
[3] Building level 0
[1] Building level 0
[2] Building level 0
[0] Building level 0
[3] Building level 1
[1] Building level 1
[2] Building level 1
[0] Building level 1
[3] Building level 2
[2] Building level 2
[1] Building level 2
[0] Building level 2
[3] Building level 3
[2] Building level 3
[0] Building level 3
[1] Building level 3
[3] Building level 4
[2] Building level 4
[1] Building level 4
[0] Building level 4
[3] Building level 5
[2] Building level 5
[1] Building level 5
[0] Building level 5
[3] Building level 6
[2] Building level 6
[1] Building level 6
[0] Building level 6
[3] Building level 7
[2] Building level 7
[1] Building level 7
[3] Building level 8
[2] Building level 8
[0] Building level 7
[3] Building level 9
[1] Building level 8
[3] Building level 10
[2] Building level 9
[3] Building level 11
[3] Building level 12
[3] Building level 13
[3] Building level 14
[2] Building level 10
[1] Building level 9
[2] Building level 11
[2] Building level 12
[2] Building level 13
[2] Building level 14
[1] Building level 10
[0] Building level 8
[1] Building level 11
[1] Building level 12
[1] Building level 13
[1] Building level 14
[0] Building level 9
[0] Building level 10
[0] Building level 11
[0] Building level 12
[0] Building level 13
[0] Building level 14
14 Level construction complete
initial dot_x = 121463
Iter #1 residual = 0.00125512
Iter #2 residual = 0.000641265
Iter #3 residual = 0.000347963
Iter #4 residual = 0.000255461
Iter #5 residual = 0.000198987
Iter #6 residual = 0.000162413
Iter #7 residual = 0.00013645
Iter #8 residual = 0.000112256
Iter #9 residual = 9.24513e-05
Iter #10 residual = 7.75789e-05
Iter #11 residual = 6.64181e-05
Iter #12 residual = 5.59438e-05
GPU: 12 iters: 3.43146 s: 2.2886 GB/s
GPUAMG:  Solving for pd, Initial residual = 0.0011104, Final residual = 4.51676e-05, No Iterations 12
[1] Building level 0
[2] Building level 0
[3] Building level 0
[0] Building level 0
[3] Building level 1
[2] Building level 1
[0] Building level 1
[1] Building level 1
[3] Building level 2
[2] Building level 2
[0] Building level 2
[1] Building level 2
[3] Building level 3
[2] Building level 3
[1] Building level 3
[0] Building level 3
[3] Building level 4
[2] Building level 4
[1] Building level 4
[0] Building level 4
[3] Building level 5
[2] Building level 5
[1] Building level 5
[0] Building level 5
[3] Building level 6
[1] Building level 6
[2] Building level 6
[0] Building level 6
[3] Building level 7
[1] Building level 7
[2] Building level 7
[3] Building level 8
[1] Building level 8
[2] Building level 8
[0] Building level 7
[3] Building level 9
[1] Building level 9
[2] Building level 9
[3] Building level 10
[3] Building level 11
[1] Building level 10
[3] Building level 12
[3] Building level 13
[2] Building level 10
[3] Building level 14
[1] Building level 11
[1] Building level 12
[2] Building level 11
[1] Building level 13
[1] Building level 14
[2] Building level 12
[2] Building level 13
[2] Building level 14
[0] Building level 8
[0] Building level 9
[0] Building level 10
[0] Building level 11
[0] Building level 12
[0] Building level 13
[0] Building level 14
14 Level construction complete
initial dot_x = 114718
Iter #1 residual = 0.00019603
Iter #2 residual = 0.000114789
Iter #3 residual = 6.83328e-05
Iter #4 residual = 4.84367e-05
Iter #5 residual = 3.83654e-05
Iter #6 residual = 3.10684e-05
Iter #7 residual = 2.54568e-05
Iter #8 residual = 1.84671e-05
Iter #9 residual = 1.15778e-05
Iter #10 residual = 7.66589e-06
Iter #11 residual = 5.1353e-06
Iter #12 residual = 3.76652e-06
Iter #13 residual = 2.89519e-06
Iter #14 residual = 2.29354e-06
Iter #15 residual = 1.85878e-06
Iter #16 residual = 1.41291e-06
Iter #17 residual = 9.20013e-07
Iter #18 residual = 5.78572e-07
Iter #19 residual = 3.65888e-07
Iter #20 residual = 2.61538e-07
Iter #21 residual = 2.09636e-07
Iter #22 residual = 1.58741e-07
Iter #23 residual = 1.04898e-07
GPU: 23 iters: 6.3296 s: 2.37805 GB/s
GPUAMG:  Solving for pd, Initial residual = 0.000560294, Final residual = 6.02609e-08, No Iterations 23
time step continuity errors : sum local = 2.8051e-12, global = 1.55307e-24, cumulative = -1.1979e-23
ExecutionTime = 455.22 s  ClockTime = 480 s

Courant Number mean: 3.46316e-05 max: 0.00834952 velocity magnitude: 0.130461
Time = 0.008

MULES: Solving for alpha1
Liquid phase volume fraction = 0.00275421  Min(alpha1) = -2.22834e-30  Max(alpha1) = 1
MULES: Solving for alpha1
Liquid phase volume fraction = 0.00275421  Min(alpha1) = -3.57161e-30  Max(alpha1) = 1
[0] Building level 0
[3] Building level 0
[1] Building level 0
[2] Building level 0
[3] Building level 1
[1] Building level 1
[2] Building level 1
[0] Building level 1
Reconstruction on level 1
[2] Building level 2
[1] Building level 2
[1] Building level 3
[2] Building level 3
Creating AMGLevel 
[3] Building level 2
[0] Building level 2
Reconstruction on level 2
[1] Building level 4
[2] Building level 4
[1] Building level 5
[2] Building level 5
[1] Building level 6
[2] Building level 6
[3] Building level 3
Creating AMGLevel 
[0] Building level 3
Reconstruction on level 3
[1] Building level 7
[2] Building level 7
[1] Building level 8
[2] Building level 8
[1] Building level 9
[2] Building level 9
[1] Building level 10
[1] Building level 11
[1] Building level 12
[2] Building level 10
[1] Building level 13
[1] Building level 14
[2] Building level 11
[2] Building level 12
[2] Building level 13
[2] Building level 14
[3] Building level 4
Creating AMGLevel 
[0] Building level 4
Reconstruction on level 4
[3] Building level 5
Creating AMGLevel 
[0] Building level 5
Reconstruction on level 5
[3] Building level 6
Creating AMGLevel 
[0] Building level 6
Reconstruction on level 6
[3] Building level 7
[3] Building level 8
Creating AMGLevel 
[0] Building level 7
Reconstruction on level 7
[3] Building level 9
[3] Building level 10
[3] Building level 11
[3] Building level 12
[3] Building level 13
[3] Building level 14
Creating AMGLevel 
[0] Building level 8
Reconstruction on level 8
Creating AMGLevel 
[0] Building level 9
Reconstruction on level 9
Creating AMGLevel 
[0] Building level 10
Reconstruction on level 10
Creating AMGLevel 
[0] Building level 11
Reconstruction on level 11
Creating AMGLevel 
[0] Building level 12
Reconstruction on level 12
Creating AMGLevel 
[0] Building level 13
Reconstruction on level 13
Creating AMGLevel 
[0] Building level 14
Reconstruction on level 14
Creating AMGLevel 
14 Level construction complete
initial dot_x = 113889
Iter #1 residual = 0.00145939
Iter #2 residual = 0.000779284
Iter #3 residual = 0.00045514
Iter #4 residual = 0.000276401
Iter #5 residual = 0.000171889
GPU: 5 iters: 1.62161 s: 2.01786 GB/s
GPUAMG:  Solving for pd, Initial residual = 0.00236319, Final residual = 0.000109393, No Iterations 5
[3] Building level 0
[2] Building level 0
[1] Building level 0
[0] Building level 0
[3] Building level 1
[1] Building level 1
[2] Building level 1
[0] Building level 1
[2] Building level 2
[0] Building level 2
[3] Building level 2
[1] Building level 2
[0] Building level 3
[2] Building level 3
[3] Building level 3
[1] Building level 3
[0] Building level 4
[2] Building level 4
[1] Building level 4
[3] Building level 4
[2] Building level 5
[0] Building level 5
[1] Building level 5
[3] Building level 5
[2] Building level 6
[0] Building level 6
[1] Building level 6
[3] Building level 6
[2] Building level 7
[0] Building level 7
[2] Building level 8
[0] Building level 8
[1] Building level 7
[2] Building level 9
[0] Building level 9
[2] Building level 10
[3] Building level 7
[2] Building level 11
[2] Building level 12
[0] Building level 10
[2] Building level 13
[2] Building level 14
[0] Building level 11
[0] Building level 12
[0] Building level 13
[0] Building level 14
14 Level construction complete
[1] Building level 8
[3] Building level 8
[1] Building level 9
[1] Building level 10
[3] Building level 9
[1] Building level 11
[1] Building level 12
[1] Building level 13
[1] Building level 14
[3] Building level 10
[3] Building level 11
[3] Building level 12
[3] Building level 13
[3] Building level 14
initial dot_x = 120174
Iter #1 residual = 0.00125134
Iter #2 residual = 0.000650875
Iter #3 residual = 0.00037279
Iter #4 residual = 0.000225082
Iter #5 residual = 0.000138799
Iter #6 residual = 7.91887e-05
Iter #7 residual = 5.83612e-05
GPU: 7 iters: 2.15802 s: 2.12281 GB/s
GPUAMG:  Solving for pd, Initial residual = 0.00108834, Final residual = 3.8351e-05, No Iterations 7
[1] Building level 0
[3] Building level 0
[2] Building level 0
[0] Building level 0
[3] Building level 1
[1] Building level 1
[2] Building level 1
[0] Building level 1
[0] Building level 2
[2] Building level 2
[3] Building level 2
[1] Building level 2
[0] Building level 3
[2] Building level 3
[3] Building level 3
[1] Building level 3
[0] Building level 4
[2] Building level 4
[1] Building level 4
[3] Building level 4
[0] Building level 5
[2] Building level 5
[1] Building level 5
[3] Building level 5
[0] Building level 6
[2] Building level 6
[1] Building level 6
[3] Building level 6
[0] Building level 7
[2] Building level 7
[0] Building level 8
[1] Building level 7
[2] Building level 8
[0] Building level 9
[3] Building level 7
[0] Building level 10
[2] Building level 9
[0] Building level 11
[0] Building level 12
[0] Building level 13
[0] Building level 14
14 Level construction complete
[1] Building level 8
[2] Building level 10
[2] Building level 11
[2] Building level 12
[2] Building level 13
[2] Building level 14
[1] Building level 9
[3] Building level 8
[1] Building level 10
[1] Building level 11
[1] Building level 12
[1] Building level 13
[1] Building level 14
[3] Building level 9
[3] Building level 10
[3] Building level 11
[3] Building level 12
[3] Building level 13
[3] Building level 14
initial dot_x = 115659
Iter #1 residual = 0.000178714
Iter #2 residual = 0.000104721
Iter #3 residual = 6.40039e-05
Iter #4 residual = 4.02116e-05
Iter #5 residual = 2.67083e-05
Iter #6 residual = 2.04338e-05
Iter #7 residual = 1.63651e-05
Iter #8 residual = 1.16906e-05
Iter #9 residual = 9.25434e-06
Iter #10 residual = 7.46055e-06
Iter #11 residual = 5.66732e-06
Iter #12 residual = 3.65918e-06
Iter #13 residual = 2.7916e-06
Iter #14 residual = 2.27523e-06
Iter #15 residual = 1.84151e-06
Iter #16 residual = 1.51746e-06
Iter #17 residual = 1.16118e-06
Iter #18 residual = 8.16735e-07
Iter #19 residual = 6.17965e-07
Iter #20 residual = 4.87362e-07
Iter #21 residual = 4.03274e-07
Iter #22 residual = 2.99852e-07
Iter #23 residual = 2.36341e-07
Iter #24 residual = 1.17125e-07
GPU: 24 iters: 6.74696 s: 2.32794 GB/s
GPUAMG:  Solving for pd, Initial residual = 0.000470935, Final residual = 7.91436e-08, No Iterations 24
time step continuity errors : sum local = 3.68068e-12, global = 1.2213e-23, cumulative = 2.3401e-25
ExecutionTime = 515.22 s  ClockTime = 542 s

Courant Number mean: 3.97665e-05 max: 0.00903211 velocity magnitude: 0.140375
Time = 0.009

MULES: Solving for alpha1
Liquid phase volume fraction = 0.00275421  Min(alpha1) = -4.5733e-30  Max(alpha1) = 1
MULES: Solving for alpha1
Liquid phase volume fraction = 0.00275421  Min(alpha1) = -8.51493e-30  Max(alpha1) = 1
[0] Building level 0
[3] Building level 0
[2] Building level 0
[1] Building level 0
[1] Building level 1
[3] Building level 1
[2] Building level 1
[0] Building level 1
Reconstruction on level 1
[2] Building level 2
[2] Building level 3
[1] Building level 2
Creating AMGLevel 
[3] Building level 2
[0] Building level 2
Reconstruction on level 2
[2] Building level 4
[2] Building level 5
[1] Building level 3
[2] Building level 6
[3] Building level 3
Creating AMGLevel 
[0] Building level 3
Reconstruction on level 3
[2] Building level 7
[2] Building level 8
[2] Building level 9
[2] Building level 10
[2] Building level 11
[2] Building level 12
[2] Building level 13
[2] Building level 14
[1] Building level 4
[3] Building level 4
Creating AMGLevel 
[0] Building level 4
Reconstruction on level 4
[1] Building level 5
[3] Building level 5
Creating AMGLevel 
[0] Building level 5
Reconstruction on level 5
[1] Building level 6
[3] Building level 6
[1] Building level 7
[1] Building level 8
Creating AMGLevel 
[1] Building level 9
[0] Building level 6
Reconstruction on level 6
[3] Building level 7
[1] Building level 10
[1] Building level 11
[1] Building level 12
[1] Building level 13
[1] Building level 14
[3] Building level 8
[3] Building level 9
Creating AMGLevel 
[3] Building level 10
[0] Building level 7
Reconstruction on level 7
[3] Building level 11
[3] Building level 12
[3] Building level 13
[3] Building level 14
Creating AMGLevel 
[0] Building level 8
Reconstruction on level 8
Creating AMGLevel 
[0] Building level 9
Reconstruction on level 9
Creating AMGLevel 
[0] Building level 10
Reconstruction on level 10
Creating AMGLevel 
[0] Building level 11
Reconstruction on level 11
Creating AMGLevel 
[0] Building level 12
Reconstruction on level 12
Creating AMGLevel 
[0] Building level 13
Reconstruction on level 13
Creating AMGLevel 
[0] Building level 14
Reconstruction on level 14
Creating AMGLevel 
14 Level construction complete
initial dot_x = 113683
Iter #1 residual = 0.00138469
Iter #2 residual = 0.000771649
Iter #3 residual = 0.000442398
Iter #4 residual = 0.000273905
Iter #5 residual = 0.0001679
GPU: 5 iters: 1.67002 s: 1.95937 GB/s
GPUAMG:  Solving for pd, Initial residual = 0.00242037, Final residual = 0.000105413, No Iterations 5
[0] Building level 0
[2] Building level 0
[3] Building level 0
[1] Building level 0
[3] Building level 1
[2] Building level 1
[1] Building level 1
[0] Building level 1
[2] Building level 2
[3] Building level 2
[1] Building level 2
[0] Building level 2
[2] Building level 3
[1] Building level 3
[3] Building level 3
[0] Building level 3
[1] Building level 4
[2] Building level 4
[0] Building level 4
[3] Building level 4
[1] Building level 5
[2] Building level 5
[3] Building level 5
[0] Building level 5
[1] Building level 6
[2] Building level 6
[0] Building level 6
[3] Building level 6
[1] Building level 7
[2] Building level 7
[1] Building level 8
[0] Building level 7
[2] Building level 8
[3] Building level 7
[1] Building level 9
[1] Building level 10
[2] Building level 9
[1] Building level 11
[1] Building level 12
[1] Building level 13
[1] Building level 14
[2] Building level 10
[0] Building level 8
[2] Building level 11
[2] Building level 12
[2] Building level 13
[2] Building level 14
[3] Building level 8
[0] Building level 9
[3] Building level 9
[0] Building level 10
[0] Building level 11
[3] Building level 10
[0] Building level 12
[0] Building level 13
[3] Building level 11
[0] Building level 14
14 Level construction complete
[3] Building level 12
[3] Building level 13
[3] Building level 14
initial dot_x = 119590
Iter #1 residual = 0.00118994
Iter #2 residual = 0.000648734
Iter #3 residual = 0.000362882
Iter #4 residual = 0.000227345
Iter #5 residual = 0.000141197
Iter #6 residual = 9.18594e-05
Iter #7 residual = 5.90062e-05
GPU: 7 iters: 2.22738 s: 2.05671 GB/s
GPUAMG:  Solving for pd, Initial residual = 0.00103336, Final residual = 3.90775e-05, No Iterations 7
[2] Building level 0
[1] Building level 0
[0] Building level 0
[3] Building level 0
[3] Building level 1
[2] Building level 1
[0] Building level 1
[1] Building level 1
[2] Building level 2
[3] Building level 2
[0] Building level 2
[1] Building level 2
[2] Building level 3
[1] Building level 3
[3] Building level 3
[0] Building level 3
[2] Building level 4
[1] Building level 4
[3] Building level 4
[0] Building level 4
[2] Building level 5
[1] Building level 5
[3] Building level 5
[0] Building level 5
[2] Building level 6
[1] Building level 6
[3] Building level 6
[0] Building level 6
[1] Building level 7
[2] Building level 7
[3] Building level 7
[1] Building level 8
[2] Building level 8
[0] Building level 7
[1] Building level 9
[2] Building level 9
[1] Building level 10
[2] Building level 10
[1] Building level 11
[3] Building level 8
[2] Building level 11
[1] Building level 12
[1] Building level 13
[2] Building level 12
[1] Building level 14
[2] Building level 13
[2] Building level 14
[0] Building level 8
[3] Building level 9
[0] Building level 9
[3] Building level 10
[3] Building level 11
[3] Building level 12
[0] Building level 10
[3] Building level 13
[3] Building level 14
[0] Building level 11
[0] Building level 12
[0] Building level 13
[0] Building level 14
14 Level construction complete
initial dot_x = 114239
Iter #1 residual = 0.000162284
Iter #2 residual = 0.000104336
Iter #3 residual = 6.31125e-05
Iter #4 residual = 3.96404e-05
Iter #5 residual = 2.74654e-05
Iter #6 residual = 2.01086e-05
Iter #7 residual = 1.49582e-05
Iter #8 residual = 1.03922e-05
Iter #9 residual = 7.90942e-06
Iter #10 residual = 6.10916e-06
Iter #11 residual = 4.72054e-06
Iter #12 residual = 4.47832e-06
Iter #13 residual = 2.52761e-06
Iter #14 residual = 3.01381e-06
Iter #15 residual = 1.0219e-06
Iter #16 residual = 6.81115e-07
Iter #17 residual = 3.3033e-07
Iter #18 residual = 3.89022e-07
Iter #19 residual = 1.76391e-07
Iter #20 residual = 1.75404e-07
GPU: 20 iters: 5.84365 s: 2.23982 GB/s
GPUAMG:  Solving for pd, Initial residual = 0.00039151, Final residual = 7.86384e-08, No Iterations 20
time step continuity errors : sum local = 3.62823e-12, global = 5.12838e-24, cumulative = 5.36239e-24
ExecutionTime = 575.02 s  ClockTime = 604 s

Courant Number mean: 4.49213e-05 max: 0.00971308 velocity magnitude: 0.14937
Time = 0.01

MULES: Solving for alpha1
Liquid phase volume fraction = 0.00275421  Min(alpha1) = -1.26482e-29  Max(alpha1) = 1
MULES: Solving for alpha1
Liquid phase volume fraction = 0.00275421  Min(alpha1) = -3.21025e-29  Max(alpha1) = 1
[2] Building level 0
[3] Building level 0
[1] Building level 0
[0] Building level 0
[3] Building level 1
[1] Building level 1
[2] Building level 1
[0] Building level 1
[2] Building level 2
[0] Building level 2
[0] Building level 3
Reconstruction on level 3
Creating AMGLevel 
[0] Building level 4
Reconstruction on level 4
[2] Building level 3
Creating AMGLevel 
[0] Building level 5
Reconstruction on level 5
[1] Building level 2
[3] Building level 2
[2] Building level 4
Creating AMGLevel 
[0] Building level 6
Reconstruction on level 6
Creating AMGLevel 
[0] Building level 7
Reconstruction on level 7
Creating AMGLevel 
[0] Building level 8
Reconstruction on level 8
Creating AMGLevel 
[0] Building level 9
Reconstruction on level 9
Creating AMGLevel 
[0] Building level 10
Reconstruction on level 10
[2] Building level 5
Creating AMGLevel 
[0] Building level 11
Reconstruction on level 11
Creating AMGLevel 
[0] Building level 12
Reconstruction on level 12
Creating AMGLevel 
[0] Building level 13
Reconstruction on level 13
Creating AMGLevel 
[0] Building level 14
Reconstruction on level 14
Creating AMGLevel 
14 Level construction complete
[1] Building level 3
[3] Building level 3
[2] Building level 6
[2] Building level 7
[2] Building level 8
[2] Building level 9
[2] Building level 10
[2] Building level 11
[2] Building level 12
[2] Building level 13
[2] Building level 14
[1] Building level 4
[3] Building level 4
[1] Building level 5
[3] Building level 5
[1] Building level 6
[3] Building level 6
[1] Building level 7
[3] Building level 7
[1] Building level 8
[3] Building level 8
[1] Building level 9
[1] Building level 10
[3] Building level 9
[1] Building level 11
[1] Building level 12
[1] Building level 13
[3] Building level 10
[1] Building level 14
[3] Building level 11
[3] Building level 12
[3] Building level 13
[3] Building level 14
initial dot_x = 113828
Iter #1 residual = 0.00147369
Iter #2 residual = 0.000786857
Iter #3 residual = 0.000452188
Iter #4 residual = 0.00027075
Iter #5 residual = 0.000171713
GPU: 5 iters: 1.68409 s: 1.943 GB/s
GPUAMG:  Solving for pd, Initial residual = 0.0025848, Final residual = 0.00010639, No Iterations 5
[0] Building level 0
[3] Building level 0
[1] Building level 0
[2] Building level 0
[3] Building level 1
[2] Building level 1
[1] Building level 1
[0] Building level 1
[2] Building level 2
[1] Building level 2
[3] Building level 2
[0] Building level 2
[1] Building level 3
[2] Building level 3
[3] Building level 3
[0] Building level 3
[1] Building level 4
[2] Building level 4
[3] Building level 4
[0] Building level 4
[1] Building level 5
[2] Building level 5
[3] Building level 5
[0] Building level 5
[1] Building level 6
[2] Building level 6
[1] Building level 7
[3] Building level 6
[0] Building level 6
[1] Building level 8
[2] Building level 7
[1] Building level 9
[1] Building level 10
[1] Building level 11
[1] Building level 12
[1] Building level 13
[1] Building level 14
[2] Building level 8
[3] Building level 7
[2] Building level 9
[0] Building level 7
[2] Building level 10
[2] Building level 11
[2] Building level 12
[2] Building level 13
[2] Building level 14
[3] Building level 8
[0] Building level 8
[3] Building level 9
[3] Building level 10
[3] Building level 11
[0] Building level 9
[3] Building level 12
[3] Building level 13
[3] Building level 14
[0] Building level 10
[0] Building level 11
[0] Building level 12
[0] Building level 13
[0] Building level 14
14 Level construction complete
initial dot_x = 120141
Iter #1 residual = 0.00127145
Iter #2 residual = 0.000660874
Iter #3 residual = 0.00037406
Iter #4 residual = 0.000222827
Iter #5 residual = 0.000136382
Iter #6 residual = 8.46899e-05
Iter #7 residual = 5.31466e-05
GPU: 7 iters: 2.23554 s: 2.0492 GB/s
GPUAMG:  Solving for pd, Initial residual = 0.00101663, Final residual = 3.35445e-05, No Iterations 7
[1] Building level 0
[2] Building level 0
[3] Building level 0
[0] Building level 0
[3] Building level 1
[2] Building level 1
[1] Building level 1
[0] Building level 1
[2] Building level 2
[1] Building level 2
[3] Building level 2
[0] Building level 2
[2] Building level 3
[1] Building level 3
[3] Building level 3
[0] Building level 3
[1] Building level 4
[2] Building level 4
[3] Building level 4
[0] Building level 4
[1] Building level 5
[2] Building level 5
[3] Building level 5
[0] Building level 5
[1] Building level 6
[2] Building level 6
[3] Building level 6
[0] Building level 6
[1] Building level 7
[2] Building level 7
[1] Building level 8
[1] Building level 9
[2] Building level 8
[3] Building level 7
[1] Building level 10
[0] Building level 7
[1] Building level 11
[1] Building level 12
[1] Building level 13
[1] Building level 14
[2] Building level 9
[2] Building level 10
[2] Building level 11
[3] Building level 8
[2] Building level 12
[2] Building level 13
[2] Building level 14
[0] Building level 8
[3] Building level 9
[0] Building level 9
[3] Building level 10
[3] Building level 11
[0] Building level 10
[3] Building level 12
[3] Building level 13
[3] Building level 14
[0] Building level 11
[0] Building level 12
[0] Building level 13
[0] Building level 14
14 Level construction complete
initial dot_x = 114324
Iter #1 residual = 0.000157327
Iter #2 residual = 9.43006e-05
Iter #3 residual = 5.72696e-05
Iter #4 residual = 3.57871e-05
Iter #5 residual = 2.25876e-05
Iter #6 residual = 1.42513e-05
Iter #7 residual = 8.98331e-06
Iter #8 residual = 5.53474e-06
Iter #9 residual = 3.40253e-06
Iter #10 residual = 2.17919e-06
Iter #11 residual = 1.37202e-06
Iter #12 residual = 9.32717e-07
Iter #13 residual = 6.3044e-07
Iter #14 residual = 4.58208e-07
Iter #15 residual = 3.22242e-07
Iter #16 residual = 2.42923e-07
Iter #17 residual = 1.70405e-07
Iter #18 residual = 1.36608e-07
GPU: 18 iters: 5.3115 s: 2.21781 GB/s
GPUAMG:  Solving for pd, Initial residual = 0.000335976, Final residual = 8.91694e-08, No Iterations 18
time step continuity errors : sum local = 4.08578e-12, global = 5.3236e-25, cumulative = 5.89475e-24
ExecutionTime = 633.41 s  ClockTime = 664 s

End

Finalising parallel run
