 Data for JOB [54078,1] offset 0

 ========================   JOB MAP   ========================

 Data for node: ivb106	Num slots: 6	Max slots: 0	Num procs: 6
 	Process OMPI jobid: [54078,1] App: 0 Process rank: 0
 	Process OMPI jobid: [54078,1] App: 0 Process rank: 1
 	Process OMPI jobid: [54078,1] App: 0 Process rank: 2
 	Process OMPI jobid: [54078,1] App: 0 Process rank: 3
 	Process OMPI jobid: [54078,1] App: 0 Process rank: 4
 	Process OMPI jobid: [54078,1] App: 0 Process rank: 5

 =============================================================
[ivb106:22700] MCW rank 3 bound to socket 0[core 3[hwt 0]]: [./././B/./././././.][./././././././././.]
[ivb106:22700] MCW rank 4 bound to socket 0[core 4[hwt 0]]: [././././B/././././.][./././././././././.]
[ivb106:22700] MCW rank 5 bound to socket 0[core 5[hwt 0]]: [./././././B/./././.][./././././././././.]
[ivb106:22700] MCW rank 0 bound to socket 0[core 0[hwt 0]]: [B/././././././././.][./././././././././.]
[ivb106:22700] MCW rank 1 bound to socket 0[core 1[hwt 0]]: [./B/./././././././.][./././././././././.]
[ivb106:22700] MCW rank 2 bound to socket 0[core 2[hwt 0]]: [././B/././././././.][./././././././././.]
1
0
2
3
4
5
/*---------------------------------------------------------------------------*\
| =========                 |                                                 |
| \\      /  F ield         | foam-extend: Open Source CFD                    |
|  \\    /   O peration     | Version:     3.1                                |
|   \\  /    A nd           | Web:         http://www.extend-project.de       |
|    \\/     M anipulation  |                                                 |
\*---------------------------------------------------------------------------*/
Build    : 3.1-e2da948002a2
Exec     : interFoam -parallel
Date     : May 21 2016
Time     : 07:54:07
Host     : ivb106
PID      : 22761
CtrlDict : /home-2/vplatonov/foam/foam-extend-3.1/etc/controlDict
Case     : /home/vplatonov/tests/rt12mln
nProcs   : 6
Slaves : 
5
(
ivb106.22744
ivb106.22755
ivb106.22745
ivb106.22766
ivb106.22749
)

Pstream initialized with:
    floatTransfer     : 0
    nProcsSimpleSum   : 0
    commsType         : blocking
SigFpe   : Enabling floating point exception trapping (FOAM_SIGFPE).

// * * * * * * * * * * * * * * * * * * * * * * * * * * * * * * * * * * * * * //
Create time

Create mesh for time = 0


Reading g
Reading field pd

Reading field alpha1

Reading field U

Reading/calculating face flux field phi

Reading transportProperties

Selecting incompressible transport model Newtonian
Selecting incompressible transport model Newtonian
Calculating field g.h

Selecting turbulence model type laminar
time step continuity errors : sum local = 0, global = 0, cumulative = 0
Created persistent data with name pcorr
GPUAMG:  Solving for pcorr, Initial residual = 0, Final residual = 0, No Iterations 0
time step continuity errors : sum local = 0, global = 0, cumulative = 0
Courant Number mean: 0 max: 0 velocity magnitude: 0

Starting time loop

Courant Number mean: 0 max: 0 velocity magnitude: 0
Time = 0.001

MULES: Solving for alpha1
Liquid phase volume fraction = 0.00275421  Min(alpha1) = 0  Max(alpha1) = 1
MULES: Solving for alpha1
Liquid phase volume fraction = 0.00275421  Min(alpha1) = 0  Max(alpha1) = 1
Created persistent data with name pd
[2] Building level 0
[3] Building level 0
[4] Building level 0
[5] Building level 0
[0] Building level 0
[1] Building level 0
[3] Building level 1
[2] Building level 1
[1] Building level 1
[4] Building level 1
Creating AMGLevel 
[0] Building level 1
[5] Building level 1
[3] Building level 2
[1] Building level 2
[2] Building level 2
[4] Building level 2
Creating AMGLevel 
[0] Building level 2
[5] Building level 2
[3] Building level 3
[2] Building level 3
[1] Building level 3
[4] Building level 3
Creating AMGLevel 
[0] Building level 3
[5] Building level 3
[3] Building level 4
[2] Building level 4
[1] Building level 4
[4] Building level 4
Creating AMGLevel 
[0] Building level 4
[5] Building level 4
[3] Building level 5
[2] Building level 5
[1] Building level 5
[4] Building level 5
Creating AMGLevel 
[0] Building level 5
[5] Building level 5
[3] Building level 6
[2] Building level 6
[1] Building level 6
[4] Building level 6
Creating AMGLevel 
[0] Building level 6
[3] Building level 7
[2] Building level 7
[5] Building level 6
[1] Building level 7
[4] Building level 7
[3] Building level 8
Creating AMGLevel 
[0] Building level 7
[2] Building level 8
[1] Building level 8
[3] Building level 9
[4] Building level 8
[3] Building level 10
[2] Building level 9
[1] Building level 9
Creating AMGLevel 
[0] Building level 8
[5] Building level 7
[3] Building level 11
[3] Building level 12
[1] Building level 10
[2] Building level 10
[3] Building level 13
[4] Building level 9
[3] Building level 14
[1] Building level 11
Creating AMGLevel 
[0] Building level 9
[2] Building level 11
[1] Building level 12
[4] Building level 10
[1] Building level 13
[2] Building level 12
[1] Building level 14
[4] Building level 11
[2] Building level 13
[2] Building level 14
Creating AMGLevel 
[0] Building level 10
[5] Building level 8
[4] Building level 12
[4] Building level 13
Creating AMGLevel 
[0] Building level 11
[4] Building level 14
Creating AMGLevel 
[0] Building level 12
Creating AMGLevel 
[0] Building level 13
Creating AMGLevel 
[0] Building level 14
[5] Building level 9
Creating AMGLevel 
14 Level construction complete
[5] Building level 10
[5] Building level 11
[5] Building level 12
[5] Building level 13
[5] Building level 14
initial dot_x = 0
Iter #1 residual = 0.0735088
GPU: 1 iters: 0.431424 s: 1.01099 GB/s
GPUAMG:  Solving for pd, Initial residual = 1, Final residual = 0.0272231, No Iterations 1
[3] Building level 0
[4] Building level 0
[1] Building level 0
[0] Building level 0
[5] Building level 0
[2] Building level 0
[0] Building level 1
[3] Building level 1
[2] Building level 1
[4] Building level 1
[5] Building level 1
[1] Building level 1
[2] Building level 2
[0] Building level 2
[1] Building level 2
[3] Building level 2
[4] Building level 2
[5] Building level 2
[2] Building level 3
[0] Building level 3
[3] Building level 3
[1] Building level 3
[4] Building level 3
[5] Building level 3
[2] Building level 4
[3] Building level 4
[0] Building level 4
[1] Building level 4
[4] Building level 4
[5] Building level 4
[2] Building level 5
[3] Building level 5
[0] Building level 5
[1] Building level 5
[4] Building level 5
[5] Building level 5
[3] Building level 6
[2] Building level 6
[0] Building level 6
[1] Building level 6
[3] Building level 7
[4] Building level 6
[2] Building level 7
[5] Building level 6
[3] Building level 8
[2] Building level 8
[0] Building level 7
[3] Building level 9
[1] Building level 7
[2] Building level 9
[3] Building level 10
[3] Building level 11
[4] Building level 7
[2] Building level 10
[3] Building level 12
[3] Building level 13
[3] Building level 14
[2] Building level 11
[2] Building level 12
[5] Building level 7
[2] Building level 13
[0] Building level 8
[2] Building level 14
[1] Building level 8
[0] Building level 9
[4] Building level 8
[0] Building level 10
[1] Building level 9
[5] Building level 8
[0] Building level 11
[0] Building level 12
[1] Building level 10
[0] Building level 13
[0] Building level 14
14 Level construction complete
[1] Building level 11
[4] Building level 9
[1] Building level 12
[1] Building level 13
[1] Building level 14
[5] Building level 9
[4] Building level 10
[4] Building level 11
[5] Building level 10
[4] Building level 12
[4] Building level 13
[5] Building level 11
[4] Building level 14
[5] Building level 12
[5] Building level 13
[5] Building level 14
initial dot_x = 75889.3
Iter #1 residual = 0.00835044
Iter #2 residual = 0.00430563
Iter #3 residual = 0.00228551
Iter #4 residual = 0.00122377
GPU: 4 iters: 1.06105 s: 1.64428 GB/s
GPUAMG:  Solving for pd, Initial residual = 0.0195871, Final residual = 0.000647023, No Iterations 4
[5] Building level 0
[4] Building level 0
[1] Building level 0
[3] Building level 0
[2] Building level 0
[0] Building level 0
[0] Building level 1
[3] Building level 1
[2] Building level 1
[4] Building level 1
[5] Building level 1
[1] Building level 1
[0] Building level 2
[2] Building level 2
[1] Building level 2
[3] Building level 2
[4] Building level 2
[5] Building level 2
[2] Building level 3
[0] Building level 3
[3] Building level 3
[1] Building level 3
[4] Building level 3
[5] Building level 3
[2] Building level 4
[3] Building level 4
[0] Building level 4
[1] Building level 4
[4] Building level 4
[5] Building level 4
[2] Building level 5
[3] Building level 5
[0] Building level 5
[1] Building level 5
[4] Building level 5
[5] Building level 5
[3] Building level 6
[2] Building level 6
[0] Building level 6
[1] Building level 6
[3] Building level 7
[4] Building level 6
[2] Building level 7
[5] Building level 6
[3] Building level 8
[0] Building level 7
[2] Building level 8
[1] Building level 7
[3] Building level 9
[3] Building level 10
[2] Building level 9
[3] Building level 11
[4] Building level 7
[3] Building level 12
[2] Building level 10
[3] Building level 13
[3] Building level 14
[0] Building level 8
[2] Building level 11
[2] Building level 12
[2] Building level 13
[5] Building level 7
[2] Building level 14
[1] Building level 8
[0] Building level 9
[0] Building level 10
[1] Building level 9
[4] Building level 8
[0] Building level 11
[0] Building level 12
[0] Building level 13
[1] Building level 10
[0] Building level 14
14 Level construction complete
[5] Building level 8
[1] Building level 11
[1] Building level 12
[1] Building level 13
[4] Building level 9
[1] Building level 14
[5] Building level 9
[4] Building level 10
[4] Building level 11
[5] Building level 10
[4] Building level 12
[4] Building level 13
[4] Building level 14
[5] Building level 11
[5] Building level 12
[5] Building level 13
[5] Building level 14
initial dot_x = 126222
Iter #1 residual = 0.00255173
Iter #2 residual = 0.00115625
Iter #3 residual = 0.000570585
Iter #4 residual = 0.000292623
Iter #5 residual = 0.000160944
Iter #6 residual = 9.84536e-05
Iter #7 residual = 6.39322e-05
Iter #8 residual = 4.02626e-05
Iter #9 residual = 2.6898e-05
Iter #10 residual = 1.90736e-05
Iter #11 residual = 1.34722e-05
Iter #12 residual = 1.14945e-05
Iter #13 residual = 7.87717e-06
Iter #14 residual = 1.10731e-05
Iter #15 residual = 9.54097e-06
Iter #16 residual = 4.28545e-06
Iter #17 residual = 1.05645e-05
Iter #18 residual = 7.32128e-06
Iter #19 residual = 4.39536e-06
Iter #20 residual = 1.81644e-06
Iter #21 residual = 3.39735e-06
Iter #22 residual = 2.04531e-06
Iter #23 residual = 1.84863e-06
Iter #24 residual = 1.26668e-06
Iter #25 residual = 1.97959e-06
Iter #26 residual = 1.47322e-06
Iter #27 residual = 7.68255e-07
Iter #28 residual = 9.81726e-07
Iter #29 residual = 9.0081e-07
Iter #30 residual = 7.79522e-07
Iter #31 residual = 6.38757e-07
Iter #32 residual = 9.82395e-07
Iter #33 residual = 1.50043e-06
Iter #34 residual = 7.58863e-07
Iter #35 residual = 1.80863e-06
Iter #36 residual = 9.3732e-07
Iter #37 residual = 7.09859e-07
Iter #38 residual = 6.65457e-07
Iter #39 residual = 5.09882e-07
Iter #40 residual = 4.4032e-07
Iter #41 residual = 4.79727e-07
Iter #42 residual = 5.01305e-07
Iter #43 residual = 4.85352e-07
Iter #44 residual = 4.94366e-07
Iter #45 residual = 4.40825e-07
Iter #46 residual = 6.81953e-07
Iter #47 residual = 5.07853e-07
Iter #48 residual = 1.58437e-06
Iter #49 residual = 9.27006e-07
Iter #50 residual = 6.69617e-07
GPU: 50 iters: 10.7725 s: 2.02444 GB/s
GPUAMG:  Solving for pd, Initial residual = 0.00627283, Final residual = 3.52242e-07, No Iterations 50
time step continuity errors : sum local = 2.82919e-11, global = -2.84743e-24, cumulative = -2.84743e-24
ExecutionTime = 71.16 s  ClockTime = 88 s

Courant Number mean: 4.83965e-06 max: 0.00216219 velocity magnitude: 0.0337842
Time = 0.002

MULES: Solving for alpha1
Liquid phase volume fraction = 0.00275421  Min(alpha1) = 0  Max(alpha1) = 1
MULES: Solving for alpha1
Liquid phase volume fraction = 0.00275421  Min(alpha1) = 0  Max(alpha1) = 1
[4] Building level 0
[2] Building level 0
[3] Building level 0
[1] Building level 0
[0] Building level 0
[5] Building level 0
[2] Building level 1
[0] Building level 1
Reconstruction on level 1
[3] Building level 1
[5] Building level 1
[4] Building level 1
[1] Building level 1
[2] Building level 2
[3] Building level 2
[2] Building level 3
[3] Building level 3
[2] Building level 4
[3] Building level 4
[2] Building level 5
[3] Building level 5
[4] Building level 2
[1] Building level 2
Creating AMGLevel 
[0] Building level 2
Reconstruction on level 2
[5] Building level 2
[2] Building level 6
[3] Building level 6
[2] Building level 7
[3] Building level 7
[2] Building level 8
[3] Building level 8
[2] Building level 9
[3] Building level 9
[2] Building level 10
[3] Building level 10
[2] Building level 11
[3] Building level 11
[2] Building level 12
[3] Building level 12
[2] Building level 13
[3] Building level 13
[2] Building level 14
[3] Building level 14
[1] Building level 3
[4] Building level 3
Creating AMGLevel 
[0] Building level 3
Reconstruction on level 3
[5] Building level 3
[1] Building level 4
Creating AMGLevel 
[0] Building level 4
Reconstruction on level 4
[4] Building level 4
[5] Building level 4
[1] Building level 5
Creating AMGLevel 
[0] Building level 5
Reconstruction on level 5
[4] Building level 5
[1] Building level 6
[5] Building level 5
[1] Building level 7
Creating AMGLevel 
[0] Building level 6
Reconstruction on level 6
[1] Building level 8
[4] Building level 6
[1] Building level 9
[1] Building level 10
[5] Building level 6
[1] Building level 11
Creating AMGLevel 
[1] Building level 12
[0] Building level 7
Reconstruction on level 7
[1] Building level 13
[1] Building level 14
[4] Building level 7
Creating AMGLevel 
[0] Building level 8
Reconstruction on level 8
[5] Building level 7
Creating AMGLevel 
[0] Building level 9
Reconstruction on level 9
[4] Building level 8
Creating AMGLevel 
[0] Building level 10
Reconstruction on level 10
Creating AMGLevel 
[0] Building level 11
Reconstruction on level 11
Creating AMGLevel 
[4] Building level 9
[0] Building level 12
Reconstruction on level 12
Creating AMGLevel 
[0] Building level 13
Reconstruction on level 13
[5] Building level 8
Creating AMGLevel 
[0] Building level 14
Reconstruction on level 14
Creating AMGLevel 
14 Level construction complete
[4] Building level 10
[4] Building level 11
[4] Building level 12
[4] Building level 13
[5] Building level 9
[4] Building level 14
[5] Building level 10
[5] Building level 11
[5] Building level 12
[5] Building level 13
[5] Building level 14
initial dot_x = 114880
Iter #1 residual = 0.0244285
Iter #2 residual = 0.0224373
Iter #3 residual = 0.00847401
Iter #4 residual = 0.0089441
Iter #5 residual = 0.00643628
Iter #6 residual = 0.00932743
Iter #7 residual = 0.0078868
Iter #8 residual = 0.0082134
Iter #9 residual = 0.00702053
Iter #10 residual = 0.00775983
Iter #11 residual = 0.0066107
Iter #12 residual = 0.0111376
Iter #13 residual = 0.0114577
Iter #14 residual = 0.00759477
Iter #15 residual = 0.00827644
Iter #16 residual = 0.0103378
Iter #17 residual = 0.00510715
Iter #18 residual = 0.00528384
Iter #19 residual = 0.00417721
Iter #20 residual = 0.00688381
Iter #21 residual = 0.00512889
Iter #22 residual = 0.00989494
Iter #23 residual = 0.00648154
Iter #24 residual = 0.0123938
Iter #25 residual = 0.00974825
Iter #26 residual = 0.00936676
Iter #27 residual = 0.00431299
Iter #28 residual = 0.0044607
Iter #29 residual = 0.00342637
Iter #30 residual = 0.00320851
Iter #31 residual = 0.0033677
Iter #32 residual = 0.00416585
Iter #33 residual = 0.00291115
Iter #34 residual = 0.00342513
Iter #35 residual = 0.00265071
Iter #36 residual = 0.00382764
Iter #37 residual = 0.00324736
Iter #38 residual = 0.00585183
Iter #39 residual = 0.00281912
Iter #40 residual = 0.00368056
Iter #41 residual = 0.00242692
Iter #42 residual = 0.00442535
Iter #43 residual = 0.00284299
Iter #44 residual = 0.00527231
Iter #45 residual = 0.00219524
Iter #46 residual = 0.00184216
Iter #47 residual = 0.00187235
Iter #48 residual = 0.00291084
Iter #49 residual = 0.00282212
Iter #50 residual = 0.00274144
GPU: 50 iters: 10.638 s: 2.05005 GB/s
GPUAMG:  Solving for pd, Initial residual = 0.00446199, Final residual = 0.00131207, No Iterations 50
[0] Building level 0
[5] Building level 0
[2] Building level 0
[1] Building level 0
[4] Building level 0
[3] Building level 0
[3] Building level 1
[2] Building level 1
[0] Building level 1
[1] Building level 1
[5] Building level 1
[4] Building level 1
[2] Building level 2
[3] Building level 2
[0] Building level 2
[1] Building level 2
[5] Building level 2
[4] Building level 2
[2] Building level 3
[3] Building level 3
[0] Building level 3
[5] Building level 3
[1] Building level 3
[4] Building level 3
[2] Building level 4
[3] Building level 4
[0] Building level 4
[1] Building level 4
[5] Building level 4
[4] Building level 4
[2] Building level 5
[3] Building level 5
[0] Building level 5
[1] Building level 5
[2] Building level 6
[3] Building level 6
[5] Building level 5
[2] Building level 7
[4] Building level 5
[1] Building level 6
[2] Building level 8
[0] Building level 6
[2] Building level 9
[2] Building level 10
[3] Building level 7
[2] Building level 11
[2] Building level 12
[2] Building level 13
[2] Building level 14
[1] Building level 7
[0] Building level 7
[3] Building level 8
[1] Building level 8
[3] Building level 9
[5] Building level 6
[3] Building level 10
[4] Building level 6
[0] Building level 8
[1] Building level 9
[3] Building level 11
[3] Building level 12
[3] Building level 13
[3] Building level 14
[1] Building level 10
[1] Building level 11
[0] Building level 9
[1] Building level 12
[1] Building level 13
[1] Building level 14
[0] Building level 10
[0] Building level 11
[0] Building level 12
[0] Building level 13
[0] Building level 14
14 Level construction complete
[5] Building level 7
[4] Building level 7
[5] Building level 8
[4] Building level 8
[5] Building level 9
[4] Building level 9
[5] Building level 10
[5] Building level 11
[4] Building level 10
[5] Building level 12
[5] Building level 13
[5] Building level 14
[4] Building level 11
[4] Building level 12
[4] Building level 13
[4] Building level 14
initial dot_x = 6.75786e+09
Iter #1 residual = 0.0223005
Iter #2 residual = 0.0283483
Iter #3 residual = 0.0154454
Iter #4 residual = 0.00706176
Iter #5 residual = 0.00433121
Iter #6 residual = 0.010053
Iter #7 residual = 0.00655382
Iter #8 residual = 0.00790739
Iter #9 residual = 0.00705191
Iter #10 residual = 0.00905878
Iter #11 residual = 0.00469365
Iter #12 residual = 0.00542193
Iter #13 residual = 0.00454652
Iter #14 residual = 0.00587906
Iter #15 residual = 0.00390054
Iter #16 residual = 0.00907239
Iter #17 residual = 0.00787375
Iter #18 residual = 0.00538287
Iter #19 residual = 0.0046158
Iter #20 residual = 0.00433371
Iter #21 residual = 0.00233815
Iter #22 residual = 0.00215279
Iter #23 residual = 0.00388561
Iter #24 residual = 0.00241675
Iter #25 residual = 0.0052398
Iter #26 residual = 0.00522659
Iter #27 residual = 0.00238084
Iter #28 residual = 0.00228019
Iter #29 residual = 0.00331753
Iter #30 residual = 0.00243649
Iter #31 residual = 0.00245288
Iter #32 residual = 0.00193675
Iter #33 residual = 0.00272211
Iter #34 residual = 0.00230634
Iter #35 residual = 0.00432692
Iter #36 residual = 0.00224874
Iter #37 residual = 0.00193109
Iter #38 residual = 0.00172242
Iter #39 residual = 0.00288331
Iter #40 residual = 0.00376636
Iter #41 residual = 0.0018763
Iter #42 residual = 0.00300303
Iter #43 residual = 0.00230252
Iter #44 residual = 0.0033717
Iter #45 residual = 0.00183977
Iter #46 residual = 0.00211014
Iter #47 residual = 0.00164767
Iter #48 residual = 0.00246762
Iter #49 residual = 0.00161749
Iter #50 residual = 0.0032958
GPU: 50 iters: 10.6565 s: 2.04647 GB/s
GPUAMG:  Solving for pd, Initial residual = 0.00518033, Final residual = 0.0014029, No Iterations 50
[3] Building level 0
[2] Building level 0
[4] Building level 0
[5] Building level 0
[1] Building level 0
[0] Building level 0
[3] Building level 1
[2] Building level 1
[0] Building level 1
[5] Building level 1
[1] Building level 1
[4] Building level 1
[2] Building level 2
[3] Building level 2
[0] Building level 2
[5] Building level 2
[1] Building level 2
[4] Building level 2
[2] Building level 3
[3] Building level 3
[5] Building level 3
[0] Building level 3
[4] Building level 3
[1] Building level 3
[2] Building level 4
[3] Building level 4
[0] Building level 4
[1] Building level 4
[5] Building level 4
[4] Building level 4
[2] Building level 5
[3] Building level 5
[0] Building level 5
[1] Building level 5
[2] Building level 6
[5] Building level 5
[3] Building level 6
[0] Building level 6
[4] Building level 5
[2] Building level 7
[1] Building level 6
[3] Building level 7
[2] Building level 8
[0] Building level 7
[2] Building level 9
[2] Building level 10
[2] Building level 11
[3] Building level 8
[2] Building level 12
[5] Building level 6
[2] Building level 13
[1] Building level 7
[2] Building level 14
[3] Building level 9
[0] Building level 8
[3] Building level 10
[3] Building level 11
[1] Building level 8
[0] Building level 9
[3] Building level 12
[3] Building level 13
[3] Building level 14
[0] Building level 10
[4] Building level 6
[0] Building level 11
[0] Building level 12
[1] Building level 9
[0] Building level 13
[0] Building level 14
14 Level construction complete
[1] Building level 10
[1] Building level 11
[5] Building level 7
[1] Building level 12
[1] Building level 13
[1] Building level 14
[5] Building level 8
[4] Building level 7
[5] Building level 9
[5] Building level 10
[5] Building level 11
[5] Building level 12
[5] Building level 13
[5] Building level 14
[4] Building level 8
[4] Building level 9
[4] Building level 10
[4] Building level 11
[4] Building level 12
[4] Building level 13
[4] Building level 14
initial dot_x = 705219
Iter #1 residual = 0.0152887
Iter #2 residual = 0.0174094
Iter #3 residual = 0.0098209
Iter #4 residual = 0.0150025
Iter #5 residual = 0.0158743
Iter #6 residual = 0.00838879
Iter #7 residual = 0.00761801
Iter #8 residual = 0.0100851
Iter #9 residual = 0.00692111
Iter #10 residual = 0.00895744
Iter #11 residual = 0.00764122
Iter #12 residual = 0.00600029
Iter #13 residual = 0.00609419
Iter #14 residual = 0.0084776
Iter #15 residual = 0.00549171
Iter #16 residual = 0.00991754
Iter #17 residual = 0.00991418
Iter #18 residual = 0.00994696
Iter #19 residual = 0.00501807
Iter #20 residual = 0.00679627
Iter #21 residual = 0.0054358
Iter #22 residual = 0.00885549
Iter #23 residual = 0.00559408
Iter #24 residual = 0.0139755
Iter #25 residual = 0.0125885
Iter #26 residual = 0.00475426
Iter #27 residual = 0.0050059
Iter #28 residual = 0.00360173
Iter #29 residual = 0.00752643
Iter #30 residual = 0.00753631
Iter #31 residual = 0.00342011
Iter #32 residual = 0.00376963
Iter #33 residual = 0.0048967
Iter #34 residual = 0.00313801
Iter #35 residual = 0.00608231
Iter #36 residual = 0.00641946
Iter #37 residual = 0.00252083
Iter #38 residual = 0.00617412
Iter #39 residual = 0.00430841
Iter #40 residual = 0.0104594
Iter #41 residual = 0.00861204
Iter #42 residual = 0.00384919
Iter #43 residual = 0.00239563
Iter #44 residual = 0.00428776
Iter #45 residual = 0.00336649
Iter #46 residual = 0.00464638
Iter #47 residual = 0.00303197
Iter #48 residual = 0.0053086
Iter #49 residual = 0.00308913
Iter #50 residual = 0.00822543
GPU: 50 iters: 10.6731 s: 2.0433 GB/s
GPUAMG:  Solving for pd, Initial residual = 0.00480581, Final residual = 0.00749919, No Iterations 50
time step continuity errors : sum local = 3.80062e-07, global = -4.12182e-08, cumulative = -4.12182e-08
ExecutionTime = 138.52 s  ClockTime = 156 s

Courant Number mean: 1.2037e-05 max: 0.148356 velocity magnitude: 1.15903
Time = 0.003

MULES: Solving for alpha1
Liquid phase volume fraction = 0.00275424  Min(alpha1) = -7.21808e-31  Max(alpha1) = 1
MULES: Solving for alpha1
Liquid phase volume fraction = 0.00275426  Min(alpha1) = -1.23476e-30  Max(alpha1) = 1
[4] Building level 0
[1] Building level 0
[0] Building level 0
[3] Building level 0
[5] Building level 0
[2] Building level 0
[3] Building level 1
[0] Building level 1
Reconstruction on level 1
[2] Building level 1
[5] Building level 1
[1] Building level 1
[4] Building level 1
[2] Building level 2
[3] Building level 2
[4] Building level 2
[2] Building level 3
[3] Building level 3
[2] Building level 4
[3] Building level 4
[4] Building level 3
[2] Building level 5
[3] Building level 5
[1] Building level 2
[5] Building level 2
Creating AMGLevel 
[0] Building level 2
Reconstruction on level 2
[4] Building level 4
[2] Building level 6
[3] Building level 6
[3] Building level 7
[2] Building level 7
[2] Building level 8
[3] Building level 8
[3] Building level 9
[2] Building level 9
[3] Building level 10
[2] Building level 10
[3] Building level 11
[2] Building level 11
[3] Building level 12
[2] Building level 12
[3] Building level 13
[2] Building level 13
[3] Building level 14
[2] Building level 14
[4] Building level 5
[1] Building level 3
[5] Building level 3
Creating AMGLevel 
[0] Building level 3
Reconstruction on level 3
[4] Building level 6
[4] Building level 7
[4] Building level 8
[4] Building level 9
[4] Building level 10
[4] Building level 11
[4] Building level 12
[4] Building level 13
[4] Building level 14
[1] Building level 4
[5] Building level 4
Creating AMGLevel 
[0] Building level 4
Reconstruction on level 4
[1] Building level 5
[5] Building level 5
Creating AMGLevel 
[0] Building level 5
Reconstruction on level 5
[1] Building level 6
[5] Building level 6
Creating AMGLevel 
[0] Building level 6
Reconstruction on level 6
[1] Building level 7
Creating AMGLevel 
[0] Building level 7
Reconstruction on level 7
[5] Building level 7
[1] Building level 8
[1] Building level 9
Creating AMGLevel 
[0] Building level 8
Reconstruction on level 8
[5] Building level 8
[1] Building level 10
[1] Building level 11
[1] Building level 12
Creating AMGLevel 
[5] Building level 9
[1] Building level 13
[0] Building level 9
Reconstruction on level 9
[1] Building level 14
[5] Building level 10
Creating AMGLevel 
[0] Building level 10
Reconstruction on level 10
[5] Building level 11
Creating AMGLevel 
[0] Building level 11
Reconstruction on level 11
[5] Building level 12
Creating AMGLevel 
[0] Building level 12
Reconstruction on level 12
[5] Building level 13
Creating AMGLevel 
[0] Building level 13
Reconstruction on level 13
[5] Building level 14
Creating AMGLevel 
[0] Building level 14
Reconstruction on level 14
Creating AMGLevel 
14 Level construction complete
initial dot_x = 4.02341e+09
Iter #1 residual = 0.0295499
Iter #2 residual = 0.0224629
Iter #3 residual = 0.0124238
Iter #4 residual = 0.00809679
Iter #5 residual = 0.00657324
Iter #6 residual = 0.012453
Iter #7 residual = 0.0212487
Iter #8 residual = 0.0102781
Iter #9 residual = 0.0189954
Iter #10 residual = 0.0157727
Iter #11 residual = 0.00699224
Iter #12 residual = 0.00576723
Iter #13 residual = 0.00773039
Iter #14 residual = 0.0050765
Iter #15 residual = 0.00221037
Iter #16 residual = 0.00533155
Iter #17 residual = 0.00764532
Iter #18 residual = 0.0046798
Iter #19 residual = 0.00332659
Iter #20 residual = 0.00400245
Iter #21 residual = 0.00282282
Iter #22 residual = 0.00478071
Iter #23 residual = 0.0034972
Iter #24 residual = 0.0096915
Iter #25 residual = 0.00602466
Iter #26 residual = 0.00535794
Iter #27 residual = 0.00578186
Iter #28 residual = 0.00298239
Iter #29 residual = 0.00231728
Iter #30 residual = 0.00149051
Iter #31 residual = 0.00208737
Iter #32 residual = 0.00136564
Iter #33 residual = 0.00164223
Iter #34 residual = 0.0014046
GPU: 34 iters: 7.43141 s: 1.99554 GB/s
GPUAMG:  Solving for pd, Initial residual = 0.025411, Final residual = 0.000804558, No Iterations 34
[1] Building level 0
[5] Building level 0
[3] Building level 0
[0] Building level 0
[2] Building level 0
[4] Building level 0
[3] Building level 1
[2] Building level 1
[0] Building level 1
[5] Building level 1
[4] Building level 1
[1] Building level 1
[2] Building level 2
[0] Building level 2
[3] Building level 2
[5] Building level 2
[4] Building level 2
[1] Building level 2
[2] Building level 3
[0] Building level 3
[3] Building level 3
[4] Building level 3
[5] Building level 3
[1] Building level 3
[2] Building level 4
[3] Building level 4
[0] Building level 4
[4] Building level 4
[5] Building level 4
[1] Building level 4
[2] Building level 5
[3] Building level 5
[0] Building level 5
[2] Building level 6
[4] Building level 5
[5] Building level 5
[3] Building level 6
[2] Building level 7
[1] Building level 5
[0] Building level 6
[2] Building level 8
[2] Building level 9
[2] Building level 10
[2] Building level 11
[2] Building level 12
[3] Building level 7
[2] Building level 13
[2] Building level 14
[4] Building level 6
[0] Building level 7
[3] Building level 8
[5] Building level 6
[1] Building level 6
[3] Building level 9
[0] Building level 8
[3] Building level 10
[3] Building level 11
[3] Building level 12
[0] Building level 9
[3] Building level 13
[3] Building level 14
[4] Building level 7
[0] Building level 10
[0] Building level 11
[0] Building level 12
[0] Building level 13
[0] Building level 14
14 Level construction complete
[4] Building level 8
[5] Building level 7
[1] Building level 7
[4] Building level 9
[4] Building level 10
[4] Building level 11
[5] Building level 8
[4] Building level 12
[4] Building level 13
[4] Building level 14
[1] Building level 8
[5] Building level 9
[1] Building level 9
[5] Building level 10
[5] Building level 11
[1] Building level 10
[5] Building level 12
[5] Building level 13
[5] Building level 14
[1] Building level 11
[1] Building level 12
[1] Building level 13
[1] Building level 14
initial dot_x = 3.48893e+08
Iter #1 residual = 0.0110544
Iter #2 residual = 0.0087602
Iter #3 residual = 0.00795072
Iter #4 residual = 0.00614258
Iter #5 residual = 0.00635603
Iter #6 residual = 0.0204851
Iter #7 residual = 0.0147335
Iter #8 residual = 0.00632961
Iter #9 residual = 0.00390508
Iter #10 residual = 0.00378366
Iter #11 residual = 0.003928
Iter #12 residual = 0.00408153
Iter #13 residual = 0.00825735
Iter #14 residual = 0.00438356
Iter #15 residual = 0.00375276
Iter #16 residual = 0.0061582
Iter #17 residual = 0.00460786
Iter #18 residual = 0.00166372
Iter #19 residual = 0.00200435
Iter #20 residual = 0.00185918
Iter #21 residual = 0.00170555
Iter #22 residual = 0.00187483
Iter #23 residual = 0.000962069
Iter #24 residual = 0.00144984
Iter #25 residual = 0.00081186
Iter #26 residual = 0.00136955
Iter #27 residual = 0.00124766
GPU: 27 iters: 5.94639 s: 1.98044 GB/s
GPUAMG:  Solving for pd, Initial residual = 0.00755327, Final residual = 0.00036443, No Iterations 27
[4] Building level 0
[5] Building level 0
[1] Building level 0
[0] Building level 0
[3] Building level 0
[2] Building level 0
[3] Building level 1
[2] Building level 1
[0] Building level 1
[4] Building level 1
[5] Building level 1
[1] Building level 1
[2] Building level 2
[3] Building level 2
[0] Building level 2
[4] Building level 2
[1] Building level 2
[5] Building level 2
[2] Building level 3
[3] Building level 3
[0] Building level 3
[4] Building level 3
[1] Building level 3
[5] Building level 3
[2] Building level 4
[3] Building level 4
[0] Building level 4
[4] Building level 4
[5] Building level 4
[1] Building level 4
[2] Building level 5
[3] Building level 5
[0] Building level 5
[2] Building level 6
[3] Building level 6
[4] Building level 5
[5] Building level 5
[2] Building level 7
[0] Building level 6
[1] Building level 5
[2] Building level 8
[3] Building level 7
[2] Building level 9
[2] Building level 10
[0] Building level 7
[2] Building level 11
[2] Building level 12
[2] Building level 13
[2] Building level 14
[3] Building level 8
[0] Building level 8
[3] Building level 9
[3] Building level 10
[3] Building level 11
[3] Building level 12
[0] Building level 9
[3] Building level 13
[3] Building level 14
[4] Building level 6
[5] Building level 6
[0] Building level 10
[1] Building level 6
[0] Building level 11
[0] Building level 12
[0] Building level 13
[0] Building level 14
14 Level construction complete
[4] Building level 7
[5] Building level 7
[1] Building level 7
[4] Building level 8
[5] Building level 8
[1] Building level 8
[4] Building level 9
[5] Building level 9
[4] Building level 10
[1] Building level 9
[4] Building level 11
[5] Building level 10
[4] Building level 12
[4] Building level 13
[4] Building level 14
[1] Building level 10
[5] Building level 11
[1] Building level 11
[5] Building level 12
[5] Building level 13
[5] Building level 14
[1] Building level 12
[1] Building level 13
[1] Building level 14
initial dot_x = 1.42017e+09
Iter #1 residual = 0.0119897
Iter #2 residual = 0.0150862
Iter #3 residual = 0.0234497
Iter #4 residual = 0.0115734
Iter #5 residual = 0.00927173
Iter #6 residual = 0.00769418
Iter #7 residual = 0.00383364
Iter #8 residual = 0.00278164
Iter #9 residual = 0.0020469
Iter #10 residual = 0.00473534
Iter #11 residual = 0.00291307
Iter #12 residual = 0.00238228
Iter #13 residual = 0.00197514
Iter #14 residual = 0.0013196
Iter #15 residual = 0.00114746
Iter #16 residual = 0.00142671
Iter #17 residual = 0.00102749
Iter #18 residual = 0.00108048
Iter #19 residual = 0.000858751
Iter #20 residual = 0.00335414
Iter #21 residual = 0.00222687
Iter #22 residual = 0.00146993
Iter #23 residual = 0.00137916
Iter #24 residual = 0.00112555
Iter #25 residual = 0.000833586
Iter #26 residual = 0.000827862
Iter #27 residual = 0.000801662
Iter #28 residual = 0.000794018
Iter #29 residual = 0.000796438
Iter #30 residual = 0.000645003
Iter #31 residual = 0.000778067
Iter #32 residual = 0.00170395
Iter #33 residual = 0.000962492
Iter #34 residual = 0.00163556
Iter #35 residual = 0.00145616
Iter #36 residual = 0.000940536
Iter #37 residual = 0.000956919
Iter #38 residual = 0.000449658
Iter #39 residual = 0.000298702
Iter #40 residual = 0.000292859
Iter #41 residual = 0.000487192
Iter #42 residual = 0.000335575
Iter #43 residual = 0.00253387
Iter #44 residual = 0.00147221
Iter #45 residual = 0.000520907
Iter #46 residual = 0.00118838
Iter #47 residual = 0.000742458
Iter #48 residual = 0.000616355
Iter #49 residual = 0.000469336
Iter #50 residual = 0.000241532
GPU: 50 iters: 10.8516 s: 2.00968 GB/s
GPUAMG:  Solving for pd, Initial residual = 0.0064271, Final residual = 0.00139506, No Iterations 50
time step continuity errors : sum local = 9.01836e-08, global = -2.23271e-08, cumulative = -6.35453e-08
ExecutionTime = 198.32 s  ClockTime = 218 s

Courant Number mean: 1.63058e-05 max: 0.134695 velocity magnitude: 1.0523
Time = 0.004

MULES: Solving for alpha1
Liquid phase volume fraction = 0.00275427  Min(alpha1) = -6.78756e-30  Max(alpha1) = 1
MULES: Solving for alpha1
Liquid phase volume fraction = 0.00275428  Min(alpha1) = -2.29066e-33  Max(alpha1) = 1
[0] Building level 0
[4] Building level 0
[3] Building level 0
[1] Building level 0
[2] Building level 0
[5] Building level 0
[0] Building level 1
Reconstruction on level 1
[2] Building level 1
[3] Building level 1
[5] Building level 1
[4] Building level 1
[1] Building level 1
[2] Building level 2
[3] Building level 2
[4] Building level 2
[2] Building level 3
[3] Building level 3
[2] Building level 4
[3] Building level 4
[4] Building level 3
[3] Building level 5
[2] Building level 5
Creating AMGLevel 
[0] Building level 2
Reconstruction on level 2
[5] Building level 2
[1] Building level 2
[3] Building level 6
[2] Building level 6
[4] Building level 4
[3] Building level 7
[2] Building level 7
[3] Building level 8
[2] Building level 8
[3] Building level 9
[2] Building level 9
[3] Building level 10
[2] Building level 10
[2] Building level 11
[3] Building level 11
[2] Building level 12
[3] Building level 12
[3] Building level 13
[2] Building level 13
[2] Building level 14
[3] Building level 14
[4] Building level 5
Creating AMGLevel 
[0] Building level 3
Reconstruction on level 3
[5] Building level 3
[1] Building level 3
[4] Building level 6
[4] Building level 7
[4] Building level 8
[4] Building level 9
[4] Building level 10
[4] Building level 11
[4] Building level 12
[4] Building level 13
[4] Building level 14
Creating AMGLevel 
[0] Building level 4
Reconstruction on level 4
[5] Building level 4
[1] Building level 4
Creating AMGLevel 
[0] Building level 5
Reconstruction on level 5
[5] Building level 5
[1] Building level 5
Creating AMGLevel 
[0] Building level 6
Reconstruction on level 6
[5] Building level 6
[1] Building level 6
Creating AMGLevel 
[0] Building level 7
Reconstruction on level 7
[5] Building level 7
[1] Building level 7
Creating AMGLevel 
[0] Building level 8
Reconstruction on level 8
[5] Building level 8
Creating AMGLevel 
[0] Building level 9
Reconstruction on level 9
[1] Building level 8
Creating AMGLevel 
[5] Building level 9
[0] Building level 10
Reconstruction on level 10
Creating AMGLevel 
[0] Building level 11
Reconstruction on level 11
Creating AMGLevel 
[0] Building level 12
Reconstruction on level 12
[5] Building level 10
Creating AMGLevel 
[1] Building level 9
[0] Building level 13
Reconstruction on level 13
Creating AMGLevel 
[0] Building level 14
Reconstruction on level 14
[5] Building level 11
Creating AMGLevel 
14 Level construction complete
[5] Building level 12
[1] Building level 10
[5] Building level 13
[5] Building level 14
[1] Building level 11
[1] Building level 12
[1] Building level 13
[1] Building level 14
initial dot_x = 7.2978e+08
Iter #1 residual = 0.0249163
Iter #2 residual = 0.0108791
Iter #3 residual = 0.00608405
Iter #4 residual = 0.00378798
Iter #5 residual = 0.0026301
Iter #6 residual = 0.0020594
Iter #7 residual = 0.00249661
Iter #8 residual = 0.00158335
Iter #9 residual = 0.00731744
Iter #10 residual = 0.0038195
Iter #11 residual = 0.00355787
Iter #12 residual = 0.00225831
Iter #13 residual = 0.00140126
GPU: 13 iters: 2.96891 s: 1.90985 GB/s
GPUAMG:  Solving for pd, Initial residual = 0.0272553, Final residual = 0.000692761, No Iterations 13
[3] Building level 0
[0] Building level 0
[2] Building level 0
[5] Building level 0
[4] Building level 0
[1] Building level 0
[3] Building level 1
[0] Building level 1
[2] Building level 1
[4] Building level 1
[1] Building level 1
[5] Building level 1
[0] Building level 2
[2] Building level 2
[3] Building level 2
[4] Building level 2
[1] Building level 2
[5] Building level 2
[0] Building level 3
[2] Building level 3
[3] Building level 3
[4] Building level 3
[1] Building level 3
[5] Building level 3
[3] Building level 4
[0] Building level 4
[2] Building level 4
[1] Building level 4
[4] Building level 4
[5] Building level 4
[3] Building level 5
[0] Building level 5
[2] Building level 5
[1] Building level 5
[3] Building level 6
[4] Building level 5
[0] Building level 6
[5] Building level 5
[2] Building level 6
[3] Building level 7
[0] Building level 7
[3] Building level 8
[0] Building level 8
[2] Building level 7
[1] Building level 6
[3] Building level 9
[0] Building level 9
[3] Building level 10
[4] Building level 6
[0] Building level 10
[3] Building level 11
[3] Building level 12
[0] Building level 11
[3] Building level 13
[3] Building level 14
[2] Building level 8
[0] Building level 12
[0] Building level 13
[0] Building level 14
14 Level construction complete
[2] Building level 9
[5] Building level 6
[2] Building level 10
[2] Building level 11
[2] Building level 12
[2] Building level 13
[2] Building level 14
[1] Building level 7
[4] Building level 7
[1] Building level 8
[5] Building level 7
[4] Building level 8
[1] Building level 9
[1] Building level 10
[4] Building level 9
[1] Building level 11
[1] Building level 12
[1] Building level 13
[4] Building level 10
[1] Building level 14
[5] Building level 8
[4] Building level 11
[4] Building level 12
[4] Building level 13
[4] Building level 14
[5] Building level 9
[5] Building level 10
[5] Building level 11
[5] Building level 12
[5] Building level 13
[5] Building level 14
initial dot_x = 2.90395e+08
Iter #1 residual = 0.00517269
Iter #2 residual = 0.00744379
Iter #3 residual = 0.00462509
Iter #4 residual = 0.00322894
Iter #5 residual = 0.00191238
Iter #6 residual = 0.00101507
Iter #7 residual = 0.00201213
Iter #8 residual = 0.00130955
Iter #9 residual = 0.0017181
Iter #10 residual = 0.00165165
Iter #11 residual = 0.00107287
Iter #12 residual = 0.000668562
Iter #13 residual = 0.000811464
Iter #14 residual = 0.000581429
Iter #15 residual = 0.00103312
Iter #16 residual = 0.00073286
Iter #17 residual = 0.00217759
Iter #18 residual = 0.00123711
Iter #19 residual = 0.000764569
Iter #20 residual = 0.000759933
Iter #21 residual = 0.000617098
Iter #22 residual = 0.00108392
Iter #23 residual = 0.000666563
Iter #24 residual = 0.000737134
Iter #25 residual = 0.000661748
GPU: 25 iters: 5.49015 s: 1.98613 GB/s
GPUAMG:  Solving for pd, Initial residual = 0.0107455, Final residual = 0.000411498, No Iterations 25
[2] Building level 0
[4] Building level 0
[1] Building level 0
[5] Building level 0
[3] Building level 0
[0] Building level 0
[0] Building level 1
[3] Building level 1
[2] Building level 1
[4] Building level 1
[5] Building level 1
[1] Building level 1
[0] Building level 2
[2] Building level 2
[3] Building level 2
[5] Building level 2
[4] Building level 2
[1] Building level 2
[0] Building level 3
[2] Building level 3
[3] Building level 3
[4] Building level 3
[5] Building level 3
[1] Building level 3
[0] Building level 4
[3] Building level 4
[2] Building level 4
[1] Building level 4
[4] Building level 4
[5] Building level 4
[0] Building level 5
[3] Building level 5
[2] Building level 5
[1] Building level 5
[0] Building level 6
[4] Building level 5
[5] Building level 5
[3] Building level 6
[0] Building level 7
[2] Building level 6
[3] Building level 7
[0] Building level 8
[1] Building level 6
[0] Building level 9
[3] Building level 8
[0] Building level 10
[0] Building level 11
[0] Building level 12
[0] Building level 13
[0] Building level 14
14 Level construction complete
[4] Building level 6
[2] Building level 7
[3] Building level 9
[5] Building level 6
[3] Building level 10
[3] Building level 11
[3] Building level 12
[3] Building level 13
[3] Building level 14
[2] Building level 8
[1] Building level 7
[2] Building level 9
[2] Building level 10
[2] Building level 11
[5] Building level 7
[4] Building level 7
[2] Building level 12
[2] Building level 13
[2] Building level 14
[1] Building level 8
[1] Building level 9
[5] Building level 8
[4] Building level 8
[1] Building level 10
[1] Building level 11
[1] Building level 12
[5] Building level 9
[1] Building level 13
[1] Building level 14
[4] Building level 9
[5] Building level 10
[4] Building level 10
[5] Building level 11
[5] Building level 12
[4] Building level 11
[5] Building level 13
[5] Building level 14
[4] Building level 12
[4] Building level 13
[4] Building level 14
initial dot_x = 4.44511e+06
Iter #1 residual = 0.0139994
Iter #2 residual = 0.00876635
Iter #3 residual = 0.00576934
Iter #4 residual = 0.0119114
Iter #5 residual = 0.00757001
Iter #6 residual = 0.00256696
Iter #7 residual = 0.00256227
Iter #8 residual = 0.00122105
Iter #9 residual = 0.00129769
Iter #10 residual = 0.00175642
Iter #11 residual = 0.000939029
Iter #12 residual = 0.0027672
Iter #13 residual = 0.0015923
Iter #14 residual = 0.000882178
Iter #15 residual = 0.000317559
Iter #16 residual = 0.000775045
Iter #17 residual = 0.000436006
Iter #18 residual = 0.000525933
Iter #19 residual = 0.000566261
Iter #20 residual = 0.000325587
Iter #21 residual = 0.000772945
Iter #22 residual = 0.000486175
Iter #23 residual = 0.000265344
Iter #24 residual = 0.000295975
Iter #25 residual = 0.000198405
Iter #26 residual = 0.000269057
Iter #27 residual = 0.000198322
Iter #28 residual = 7.56663e-05
Iter #29 residual = 5.72729e-05
Iter #30 residual = 3.30231e-05
Iter #31 residual = 2.97766e-05
Iter #32 residual = 2.8364e-05
Iter #33 residual = 3.29077e-05
Iter #34 residual = 2.37744e-05
Iter #35 residual = 1.69124e-05
Iter #36 residual = 2.68698e-05
Iter #37 residual = 2.16346e-05
Iter #38 residual = 1.30266e-05
Iter #39 residual = 1.50255e-05
Iter #40 residual = 1.35148e-05
Iter #41 residual = 1.72656e-05
Iter #42 residual = 3.35392e-05
Iter #43 residual = 3.04164e-05
Iter #44 residual = 1.40815e-05
Iter #45 residual = 8.20092e-05
Iter #46 residual = 5.42319e-05
Iter #47 residual = 2.86266e-05
Iter #48 residual = 3.74999e-05
Iter #49 residual = 2.44395e-05
Iter #50 residual = 0.000107343
GPU: 50 iters: 10.8043 s: 2.01848 GB/s
GPUAMG:  Solving for pd, Initial residual = 0.0105831, Final residual = 8.68983e-05, No Iterations 50
time step continuity errors : sum local = 1.46119e-08, global = -1.05215e-08, cumulative = -7.40668e-08
ExecutionTime = 253.26 s  ClockTime = 274 s

Courant Number mean: 2.02786e-05 max: 0.0674882 velocity magnitude: 0.527251
Time = 0.005

MULES: Solving for alpha1
Liquid phase volume fraction = 0.00275429  Min(alpha1) = -3.10436e-30  Max(alpha1) = 1
MULES: Solving for alpha1
Liquid phase volume fraction = 0.00275429  Min(alpha1) = -1.70515e-29  Max(alpha1) = 1
[5] Building level 0
[1] Building level 0
[2] Building level 0
[3] Building level 0
[0] Building level 0
[4] Building level 0
[0] Building level 1
Reconstruction on level 1
[2] Building level 1
[3] Building level 1
[4] Building level 1
[5] Building level 1
[1] Building level 1
[2] Building level 2
[3] Building level 2
[4] Building level 2
[2] Building level 3
[3] Building level 3
[2] Building level 4
[3] Building level 4
[4] Building level 3
[3] Building level 5
[2] Building level 5
Creating AMGLevel 
[0] Building level 2
Reconstruction on level 2
[1] Building level 2
[5] Building level 2
[3] Building level 6
[2] Building level 6
[4] Building level 4
[3] Building level 7
[2] Building level 7
[3] Building level 8
[2] Building level 8
[3] Building level 9
[2] Building level 9
[2] Building level 10
[3] Building level 10
[2] Building level 11
[3] Building level 11
[2] Building level 12
[3] Building level 12
[2] Building level 13
[3] Building level 13
[2] Building level 14
[3] Building level 14
[4] Building level 5
Creating AMGLevel 
[0] Building level 3
Reconstruction on level 3
[1] Building level 3
[5] Building level 3
[4] Building level 6
[4] Building level 7
[4] Building level 8
[4] Building level 9
[4] Building level 10
[4] Building level 11
[4] Building level 12
[4] Building level 13
[4] Building level 14
Creating AMGLevel 
[0] Building level 4
Reconstruction on level 4
[1] Building level 4
[5] Building level 4
Creating AMGLevel 
[0] Building level 5
Reconstruction on level 5
[1] Building level 5
[5] Building level 5
Creating AMGLevel 
[0] Building level 6
Reconstruction on level 6
[1] Building level 6
[5] Building level 6
Creating AMGLevel 
[0] Building level 7
Reconstruction on level 7
Creating AMGLevel 
[0] Building level 8
Reconstruction on level 8
[1] Building level 7
[5] Building level 7
Creating AMGLevel 
[0] Building level 9
Reconstruction on level 9
Creating AMGLevel 
[0] Building level 10
Reconstruction on level 10
[5] Building level 8
[1] Building level 8
Creating AMGLevel 
[0] Building level 11
Reconstruction on level 11
Creating AMGLevel 
[0] Building level 12
Reconstruction on level 12
Creating AMGLevel 
[0] Building level 13
Reconstruction on level 13
Creating AMGLevel 
[0] Building level 14
Reconstruction on level 14
[5] Building level 9
[1] Building level 9
Creating AMGLevel 
14 Level construction complete
[5] Building level 10
[1] Building level 10
[5] Building level 11
[5] Building level 12
[1] Building level 11
[5] Building level 13
[1] Building level 12
[5] Building level 14
[1] Building level 13
[1] Building level 14
initial dot_x = 1.06759e+09
Iter #1 residual = 0.0212269
Iter #2 residual = 0.0201297
Iter #3 residual = 0.00896223
Iter #4 residual = 0.00814119
Iter #5 residual = 0.0125108
Iter #6 residual = 0.00868265
Iter #7 residual = 0.00987902
Iter #8 residual = 0.0043365
Iter #9 residual = 0.0136853
Iter #10 residual = 0.00537294
Iter #11 residual = 0.00543906
Iter #12 residual = 0.0019505
Iter #13 residual = 0.00501885
Iter #14 residual = 0.00231724
Iter #15 residual = 0.00384243
Iter #16 residual = 0.00147178
Iter #17 residual = 0.00342615
Iter #18 residual = 0.00155438
Iter #19 residual = 0.0013754
Iter #20 residual = 0.00294706
Iter #21 residual = 0.00232841
Iter #22 residual = 0.00221808
GPU: 22 iters: 4.79323 s: 2.00192 GB/s
GPUAMG:  Solving for pd, Initial residual = 0.0261782, Final residual = 0.000866375, No Iterations 22
[5] Building level 0
[4] Building level 0
[3] Building level 0
[0] Building level 0
[2] Building level 0
[1] Building level 0
[3] Building level 1
[0] Building level 1
[5] Building level 1
[4] Building level 1
[1] Building level 1
[2] Building level 1
[3] Building level 2
[0] Building level 2
[1] Building level 2
[2] Building level 2
[5] Building level 2
[4] Building level 2
[3] Building level 3
[1] Building level 3
[0] Building level 3
[2] Building level 3
[5] Building level 3
[4] Building level 3
[3] Building level 4
[2] Building level 4
[1] Building level 4
[0] Building level 4
[5] Building level 4
[4] Building level 4
[3] Building level 5
[2] Building level 5
[1] Building level 5
[0] Building level 5
[3] Building level 6
[5] Building level 5
[4] Building level 5
[2] Building level 6
[3] Building level 7
[1] Building level 6
[3] Building level 8
[2] Building level 7
[0] Building level 6
[3] Building level 9
[5] Building level 6
[3] Building level 10
[4] Building level 6
[1] Building level 7
[3] Building level 11
[3] Building level 12
[2] Building level 8
[3] Building level 13
[3] Building level 14
[2] Building level 9
[2] Building level 10
[1] Building level 8
[2] Building level 11
[2] Building level 12
[2] Building level 13
[2] Building level 14
[0] Building level 7
[1] Building level 9
[5] Building level 7
[1] Building level 10
[4] Building level 7
[1] Building level 11
[1] Building level 12
[1] Building level 13
[1] Building level 14
[0] Building level 8
[5] Building level 8
[0] Building level 9
[4] Building level 8
[5] Building level 9
[0] Building level 10
[0] Building level 11
[5] Building level 10
[4] Building level 9
[0] Building level 12
[0] Building level 13
[0] Building level 14
14 Level construction complete
[5] Building level 11
[5] Building level 12
[5] Building level 13
[4] Building level 10
[5] Building level 14
[4] Building level 11
[4] Building level 12
[4] Building level 13
[4] Building level 14
initial dot_x = 8.11267e+08
Iter #1 residual = 0.0032443
Iter #2 residual = 0.00168677
Iter #3 residual = 0.00121718
Iter #4 residual = 0.000689726
Iter #5 residual = 0.001115
Iter #6 residual = 0.00096992
Iter #7 residual = 0.0011961
GPU: 7 iters: 1.66591 s: 1.83273 GB/s
GPUAMG:  Solving for pd, Initial residual = 0.0122736, Final residual = 0.000570043, No Iterations 7
[2] Building level 0
[3] Building level 0
[4] Building level 0
[5] Building level 0
[1] Building level 0
[0] Building level 0
[0] Building level 1
[3] Building level 1
[2] Building level 1
[4] Building level 1
[5] Building level 1
[1] Building level 1
[2] Building level 2
[1] Building level 2
[3] Building level 2
[0] Building level 2
[4] Building level 2
[5] Building level 2
[2] Building level 3
[1] Building level 3
[3] Building level 3
[4] Building level 3
[5] Building level 3
[0] Building level 3
[2] Building level 4
[3] Building level 4
[1] Building level 4
[4] Building level 4
[5] Building level 4
[0] Building level 4
[2] Building level 5
[3] Building level 5
[1] Building level 5
[2] Building level 6
[4] Building level 5
[5] Building level 5
[0] Building level 5
[3] Building level 6
[2] Building level 7
[1] Building level 6
[2] Building level 8
[2] Building level 9
[2] Building level 10
[3] Building level 7
[2] Building level 11
[2] Building level 12
[2] Building level 13
[2] Building level 14
[5] Building level 6
[4] Building level 6
[1] Building level 7
[3] Building level 8
[0] Building level 6
[3] Building level 9
[1] Building level 8
[3] Building level 10
[3] Building level 11
[3] Building level 12
[3] Building level 13
[3] Building level 14
[5] Building level 7
[1] Building level 9
[4] Building level 7
[1] Building level 10
[1] Building level 11
[1] Building level 12
[1] Building level 13
[1] Building level 14
[0] Building level 7
[5] Building level 8
[4] Building level 8
[5] Building level 9
[0] Building level 8
[4] Building level 9
[5] Building level 10
[5] Building level 11
[4] Building level 10
[5] Building level 12
[5] Building level 13
[5] Building level 14
[4] Building level 11
[0] Building level 9
[4] Building level 12
[4] Building level 13
[4] Building level 14
[0] Building level 10
[0] Building level 11
[0] Building level 12
[0] Building level 13
[0] Building level 14
14 Level construction complete
initial dot_x = 6.84607e+08
Iter #1 residual = 0.00333983
Iter #2 residual = 0.00116348
Iter #3 residual = 0.00121461
Iter #4 residual = 0.00112483
Iter #5 residual = 0.000511204
Iter #6 residual = 0.00117713
Iter #7 residual = 0.00174178
Iter #8 residual = 0.000618391
Iter #9 residual = 0.000614287
Iter #10 residual = 0.00019068
Iter #11 residual = 0.00018463
Iter #12 residual = 0.000279378
Iter #13 residual = 0.000128408
Iter #14 residual = 0.000308426
Iter #15 residual = 0.000164191
Iter #16 residual = 0.000377207
Iter #17 residual = 0.000442078
Iter #18 residual = 0.000165669
Iter #19 residual = 7.44244e-05
Iter #20 residual = 0.000137583
Iter #21 residual = 6.73848e-05
Iter #22 residual = 6.12911e-05
Iter #23 residual = 4.73205e-05
Iter #24 residual = 5.05e-05
Iter #25 residual = 3.86403e-05
Iter #26 residual = 5.68115e-05
Iter #27 residual = 3.37451e-05
Iter #28 residual = 3.64504e-05
Iter #29 residual = 3.391e-05
Iter #30 residual = 2.68044e-05
Iter #31 residual = 1.17661e-05
Iter #32 residual = 1.35874e-05
Iter #33 residual = 1.29271e-05
Iter #34 residual = 8.30619e-06
Iter #35 residual = 1.34408e-05
Iter #36 residual = 8.90053e-06
Iter #37 residual = 1.60746e-05
Iter #38 residual = 1.07685e-05
GMRES:  Solving for topLevelCorr, Initial residual = 0.854131, Final residual = 0.932959, No Iterations 200
Iter #39 residual = 1.97118e-06
GMRES:  Solving for topLevelCorr, Initial residual = 0.924043, Final residual = 1.19208, No Iterations 200
Iter #40 residual = 2.68479e-06
GMRES:  Solving for topLevelCorr, Initial residual = 0.818952, Final residual = 0.819537, No Iterations 200
Iter #41 residual = 2.66371e-06
GMRES:  Solving for topLevelCorr, Initial residual = 0.854206, Final residual = 0.939532, No Iterations 200
Iter #42 residual = 2.3293e-06
GMRES:  Solving for topLevelCorr, Initial residual = 0.871649, Final residual = 0.977374, No Iterations 200
Iter #43 residual = 2.26149e-06
GMRES:  Solving for topLevelCorr, Initial residual = 0.869391, Final residual = 0.978987, No Iterations 200
Iter #44 residual = 1.72169e-06
GMRES:  Solving for topLevelCorr, Initial residual = 0.905325, Final residual = 1.10787, No Iterations 200
Iter #45 residual = 1.91273e-06
GMRES:  Solving for topLevelCorr, Initial residual = 0.866217, Final residual = 0.917228, No Iterations 200
Iter #46 residual = 1.2951e-06
GMRES:  Solving for topLevelCorr, Initial residual = 0.93724, Final residual = 1.20683, No Iterations 200
Iter #47 residual = 2.63818e-06
Iter #48 residual = 8.50873e-06
Iter #49 residual = 9.99595e-06
Iter #50 residual = 5.00332e-06
GPU: 50 iters: 10.6058 s: 2.05627 GB/s
GPUAMG:  Solving for pd, Initial residual = 0.0125932, Final residual = 1.15247e-05, No Iterations 50
time step continuity errors : sum local = 3.0537e-09, global = -2.47822e-09, cumulative = -7.6545e-08
ExecutionTime = 306.31 s  ClockTime = 328 s

Courant Number mean: 2.43922e-05 max: 0.0200413 velocity magnitude: 0.196006
Time = 0.006

MULES: Solving for alpha1
Liquid phase volume fraction = 0.00275429  Min(alpha1) = -6.5067e-32  Max(alpha1) = 1
MULES: Solving for alpha1
Liquid phase volume fraction = 0.00275429  Min(alpha1) = -9.94939e-30  Max(alpha1) = 1
[3] Building level 0
[4] Building level 0
[1] Building level 0
[5] Building level 0
[0] Building level 0
[2] Building level 0
[0] Building level 1
Reconstruction on level 1
[3] Building level 1
[2] Building level 1
[5] Building level 1
[4] Building level 1
[1] Building level 1
[2] Building level 2
[3] Building level 2
[1] Building level 2
[2] Building level 3
[3] Building level 3
[2] Building level 4
[3] Building level 4
[1] Building level 3
[3] Building level 5
[2] Building level 5
[4] Building level 2
Creating AMGLevel 
[5] Building level 2
[0] Building level 2
Reconstruction on level 2
[1] Building level 4
[2] Building level 6
[3] Building level 6
[2] Building level 7
[3] Building level 7
[2] Building level 8
[3] Building level 8
[2] Building level 9
[3] Building level 9
[2] Building level 10
[3] Building level 10
[2] Building level 11
[2] Building level 12
[3] Building level 11
[2] Building level 13
[3] Building level 12
[2] Building level 14
[3] Building level 13
[3] Building level 14
[1] Building level 5
[4] Building level 3
[5] Building level 3
Creating AMGLevel 
[0] Building level 3
Reconstruction on level 3
[1] Building level 6
[1] Building level 7
[1] Building level 8
[1] Building level 9
[1] Building level 10
[1] Building level 11
[1] Building level 12
[1] Building level 13
[1] Building level 14
[4] Building level 4
[5] Building level 4
Creating AMGLevel 
[0] Building level 4
Reconstruction on level 4
[4] Building level 5
[5] Building level 5
Creating AMGLevel 
[0] Building level 5
Reconstruction on level 5
[4] Building level 6
[5] Building level 6
Creating AMGLevel 
[0] Building level 6
Reconstruction on level 6
[4] Building level 7
[5] Building level 7
Creating AMGLevel 
[0] Building level 7
Reconstruction on level 7
[4] Building level 8
[5] Building level 8
Creating AMGLevel 
[0] Building level 8
Reconstruction on level 8
[4] Building level 9
[5] Building level 9
[4] Building level 10
Creating AMGLevel 
[0] Building level 9
Reconstruction on level 9
[5] Building level 10
[4] Building level 11
[5] Building level 11
[4] Building level 12
Creating AMGLevel 
[0] Building level 10
Reconstruction on level 10
[5] Building level 12
[4] Building level 13
[4] Building level 14
[5] Building level 13
Creating AMGLevel 
[0] Building level 11
Reconstruction on level 11
[5] Building level 14
Creating AMGLevel 
[0] Building level 12
Reconstruction on level 12
Creating AMGLevel 
[0] Building level 13
Reconstruction on level 13
Creating AMGLevel 
[0] Building level 14
Reconstruction on level 14
Creating AMGLevel 
14 Level construction complete
initial dot_x = 1.00096e+09
Iter #1 residual = 0.0194198
Iter #2 residual = 0.016441
Iter #3 residual = 0.00649045
Iter #4 residual = 0.00632228
Iter #5 residual = 0.0105241
Iter #6 residual = 0.0048502
Iter #7 residual = 0.00958427
Iter #8 residual = 0.00311979
Iter #9 residual = 0.00474576
Iter #10 residual = 0.00708148
Iter #11 residual = 0.00859822
Iter #12 residual = 0.00227141
Iter #13 residual = 0.00454556
Iter #14 residual = 0.00534791
Iter #15 residual = 0.00257778
Iter #16 residual = 0.0062715
Iter #17 residual = 0.00410516
Iter #18 residual = 0.0046559
Iter #19 residual = 0.00636144
Iter #20 residual = 0.00263715
Iter #21 residual = 0.00307725
Iter #22 residual = 0.00269047
GPU: 22 iters: 4.84382 s: 1.98101 GB/s
GPUAMG:  Solving for pd, Initial residual = 0.0269565, Final residual = 0.000829312, No Iterations 22
[0] Building level 0
[5] Building level 0
[2] Building level 0
[4] Building level 0
[1] Building level 0
[3] Building level 0
[0] Building level 1
[2] Building level 1
[3] Building level 1
[5] Building level 1
[4] Building level 1
[1] Building level 1
[2] Building level 2
[4] Building level 2
[0] Building level 2
[1] Building level 2
[3] Building level 2
[5] Building level 2
[2] Building level 3
[4] Building level 3
[1] Building level 3
[3] Building level 3
[0] Building level 3
[5] Building level 3
[2] Building level 4
[3] Building level 4
[0] Building level 4
[4] Building level 4
[1] Building level 4
[5] Building level 4
[2] Building level 5
[3] Building level 5
[0] Building level 5
[4] Building level 5
[2] Building level 6
[1] Building level 5
[3] Building level 6
[5] Building level 5
[2] Building level 7
[0] Building level 6
[2] Building level 8
[3] Building level 7
[4] Building level 6
[2] Building level 9
[2] Building level 10
[1] Building level 6
[2] Building level 11
[2] Building level 12
[2] Building level 13
[3] Building level 8
[2] Building level 14
[3] Building level 9
[0] Building level 7
[3] Building level 10
[3] Building level 11
[5] Building level 6
[3] Building level 12
[4] Building level 7
[3] Building level 13
[3] Building level 14
[1] Building level 7
[0] Building level 8
[4] Building level 8
[0] Building level 9
[0] Building level 10
[1] Building level 8
[4] Building level 9
[0] Building level 11
[0] Building level 12
[5] Building level 7
[0] Building level 13
[0] Building level 14
14 Level construction complete
[4] Building level 10
[4] Building level 11
[1] Building level 9
[4] Building level 12
[4] Building level 13
[4] Building level 14
[1] Building level 10
[1] Building level 11
[1] Building level 12
[1] Building level 13
[1] Building level 14
[5] Building level 8
[5] Building level 9
[5] Building level 10
[5] Building level 11
[5] Building level 12
[5] Building level 13
[5] Building level 14
initial dot_x = 1.60612e+08
Iter #1 residual = 0.0030108
Iter #2 residual = 0.00196479
Iter #3 residual = 0.000944872
Iter #4 residual = 0.000841036
Iter #5 residual = 0.000598506
GPU: 5 iters: 1.26853 s: 1.71917 GB/s
GPUAMG:  Solving for pd, Initial residual = 0.0118019, Final residual = 0.000421327, No Iterations 5
[4] Building level 0
[3] Building level 0
[1] Building level 0
[5] Building level 0
[2] Building level 0
[0] Building level 0
[2] Building level 1
[3] Building level 1
[0] Building level 1
[4] Building level 1
[1] Building level 1
[5] Building level 1
[2] Building level 2
[4] Building level 2
[1] Building level 2
[3] Building level 2
[0] Building level 2
[5] Building level 2
[2] Building level 3
[4] Building level 3
[3] Building level 3
[1] Building level 3
[0] Building level 3
[5] Building level 3
[2] Building level 4
[3] Building level 4
[0] Building level 4
[4] Building level 4
[1] Building level 4
[5] Building level 4
[2] Building level 5
[3] Building level 5
[0] Building level 5
[4] Building level 5
[1] Building level 5
[2] Building level 6
[3] Building level 6
[5] Building level 5
[2] Building level 7
[0] Building level 6
[2] Building level 8
[3] Building level 7
[4] Building level 6
[2] Building level 9
[1] Building level 6
[2] Building level 10
[2] Building level 11
[3] Building level 8
[2] Building level 12
[2] Building level 13
[2] Building level 14
[3] Building level 9
[0] Building level 7
[3] Building level 10
[3] Building level 11
[3] Building level 12
[3] Building level 13
[4] Building level 7
[3] Building level 14
[1] Building level 7
[5] Building level 6
[0] Building level 8
[4] Building level 8
[0] Building level 9
[1] Building level 8
[0] Building level 10
[4] Building level 9
[0] Building level 11
[0] Building level 12
[1] Building level 9
[0] Building level 13
[4] Building level 10
[0] Building level 14
14 Level construction complete
[4] Building level 11
[4] Building level 12
[1] Building level 10
[4] Building level 13
[4] Building level 14
[1] Building level 11
[5] Building level 7
[1] Building level 12
[1] Building level 13
[1] Building level 14
[5] Building level 8
[5] Building level 9
[5] Building level 10
[5] Building level 11
[5] Building level 12
[5] Building level 13
[5] Building level 14
initial dot_x = 1.88762e+08
Iter #1 residual = 0.00481138
Iter #2 residual = 0.00393268
Iter #3 residual = 0.00190678
Iter #4 residual = 0.000846656
Iter #5 residual = 0.0014776
Iter #6 residual = 0.0017876
Iter #7 residual = 0.000688979
GMRES:  Solving for topLevelCorr, Initial residual = 0.844109, Final residual = 0.866497, No Iterations 200
Iter #8 residual = 0.000178241
GMRES:  Solving for topLevelCorr, Initial residual = 0.915091, Final residual = 1.01695, No Iterations 200
Iter #9 residual = 0.000234941
GMRES:  Solving for topLevelCorr, Initial residual = 0.909905, Final residual = 1.16178, No Iterations 200
Iter #10 residual = 0.000235151
GMRES:  Solving for topLevelCorr, Initial residual = 0.910546, Final residual = 1.19924, No Iterations 200
Iter #11 residual = 0.000221171
GMRES:  Solving for topLevelCorr, Initial residual = 0.886058, Final residual = 1.11331, No Iterations 200
Iter #12 residual = 0.000294917
GMRES:  Solving for topLevelCorr, Initial residual = 0.848141, Final residual = 0.851906, No Iterations 200
Iter #13 residual = 0.000267171
GMRES:  Solving for topLevelCorr, Initial residual = 0.882253, Final residual = 1.02437, No Iterations 200
Iter #14 residual = 0.000203365
GMRES:  Solving for topLevelCorr, Initial residual = 0.893181, Final residual = 1.06213, No Iterations 200
Iter #15 residual = 0.000208159
GMRES:  Solving for topLevelCorr, Initial residual = 0.881849, Final residual = 0.985709, No Iterations 200
Iter #16 residual = 0.000154677
GMRES:  Solving for topLevelCorr, Initial residual = 0.924325, Final residual = 1.21731, No Iterations 200
Iter #17 residual = 0.000226706
Iter #18 residual = 0.00160475
Iter #19 residual = 0.000747652
Iter #20 residual = 0.0011953
Iter #21 residual = 0.00044025
Iter #22 residual = 0.00123714
Iter #23 residual = 0.000507618
Iter #24 residual = 0.000538712
Iter #25 residual = 0.000874365
Iter #26 residual = 0.000535012
Iter #27 residual = 0.00135495
Iter #28 residual = 0.00146208
Iter #29 residual = 0.000320821
Iter #30 residual = 0.000660629
Iter #31 residual = 0.000469833
Iter #32 residual = 0.000514112
Iter #33 residual = 0.000242228
Iter #34 residual = 0.000874079
Iter #35 residual = 0.00028901
Iter #36 residual = 0.000277918
Iter #37 residual = 0.000202684
Iter #38 residual = 9.49527e-05
Iter #39 residual = 0.000153714
Iter #40 residual = 0.000331154
Iter #41 residual = 0.000222713
Iter #42 residual = 0.000327271
Iter #43 residual = 0.000127529
Iter #44 residual = 0.000118966
Iter #45 residual = 5.56839e-05
Iter #46 residual = 0.00011125
Iter #47 residual = 5.3277e-05
Iter #48 residual = 7.34239e-05
Iter #49 residual = 0.000115859
Iter #50 residual = 4.46477e-05
GPU: 50 iters: 10.8061 s: 2.01815 GB/s
GPUAMG:  Solving for pd, Initial residual = 0.0121566, Final residual = 4.56343e-05, No Iterations 50
time step continuity errors : sum local = 2.2695e-09, global = 1.23173e-11, cumulative = -7.65327e-08
ExecutionTime = 358.76 s  ClockTime = 382 s

Courant Number mean: 2.93148e-05 max: 0.0136588 velocity magnitude: 0.119405
Time = 0.007

MULES: Solving for alpha1
Liquid phase volume fraction = 0.00275429  Min(alpha1) = -5.40213e-29  Max(alpha1) = 1
MULES: Solving for alpha1
Liquid phase volume fraction = 0.00275429  Min(alpha1) = -8.46448e-31  Max(alpha1) = 1
[5] Building level 0
[4] Building level 0
[1] Building level 0
[3] Building level 0
[2] Building level 0
[0] Building level 0
[3] Building level 1
[0] Building level 1
Reconstruction on level 1
[2] Building level 1
[4] Building level 1
[1] Building level 1
[5] Building level 1
[2] Building level 2
[3] Building level 2
[1] Building level 2
[2] Building level 3
[3] Building level 3
[3] Building level 4
[2] Building level 4
[1] Building level 3
[3] Building level 5
[2] Building level 5
[4] Building level 2
Creating AMGLevel 
[5] Building level 2
[0] Building level 2
Reconstruction on level 2
[1] Building level 4
[3] Building level 6
[2] Building level 6
[3] Building level 7
[2] Building level 7
[3] Building level 8
[2] Building level 8
[3] Building level 9
[2] Building level 9
[2] Building level 10
[3] Building level 10
[2] Building level 11
[3] Building level 11
[1] Building level 5
[2] Building level 12
[3] Building level 12
[2] Building level 13
[2] Building level 14
[3] Building level 13
[3] Building level 14
[4] Building level 3
[5] Building level 3
Creating AMGLevel 
[0] Building level 3
Reconstruction on level 3
[1] Building level 6
[1] Building level 7
[1] Building level 8
[1] Building level 9
[1] Building level 10
[1] Building level 11
[1] Building level 12
[1] Building level 13
[1] Building level 14
[4] Building level 4
[5] Building level 4
Creating AMGLevel 
[0] Building level 4
Reconstruction on level 4
[5] Building level 5
[4] Building level 5
Creating AMGLevel 
[0] Building level 5
Reconstruction on level 5
[4] Building level 6
[5] Building level 6
Creating AMGLevel 
[0] Building level 6
Reconstruction on level 6
[4] Building level 7
[5] Building level 7
Creating AMGLevel 
[0] Building level 7
Reconstruction on level 7
[5] Building level 8
[4] Building level 8
[5] Building level 9
Creating AMGLevel 
[4] Building level 9
[0] Building level 8
Reconstruction on level 8
[5] Building level 10
[4] Building level 10
[5] Building level 11
[4] Building level 11
Creating AMGLevel 
[0] Building level 9
Reconstruction on level 9
[5] Building level 12
[4] Building level 12
[5] Building level 13
[4] Building level 13
[5] Building level 14
[4] Building level 14
Creating AMGLevel 
[0] Building level 10
Reconstruction on level 10
Creating AMGLevel 
[0] Building level 11
Reconstruction on level 11
Creating AMGLevel 
[0] Building level 12
Reconstruction on level 12
Creating AMGLevel 
[0] Building level 13
Reconstruction on level 13
Creating AMGLevel 
[0] Building level 14
Reconstruction on level 14
Creating AMGLevel 
14 Level construction complete
initial dot_x = 7.37988e+08
Iter #1 residual = 0.0203998
Iter #2 residual = 0.00823043
Iter #3 residual = 0.00448201
Iter #4 residual = 0.00648172
Iter #5 residual = 0.00754176
Iter #6 residual = 0.0038098
Iter #7 residual = 0.00814036
Iter #8 residual = 0.008658
Iter #9 residual = 0.00307444
Iter #10 residual = 0.00686215
Iter #11 residual = 0.00676555
Iter #12 residual = 0.00186485
Iter #13 residual = 0.00587986
Iter #14 residual = 0.0065554
Iter #15 residual = 0.00224532
GPU: 15 iters: 3.39763 s: 1.9256 GB/s
GPUAMG:  Solving for pd, Initial residual = 0.0266148, Final residual = 0.000824023, No Iterations 15
[5] Building level 0
[1] Building level 0
[4] Building level 0
[2] Building level 0
[0] Building level 0
[3] Building level 0
[0] Building level 1
[3] Building level 1
[2] Building level 1
[5] Building level 1
[1] Building level 1
[4] Building level 1
[0] Building level 2
[2] Building level 2
[1] Building level 2
[3] Building level 2
[5] Building level 2
[4] Building level 2
[2] Building level 3
[0] Building level 3
[1] Building level 3
[3] Building level 3
[4] Building level 3
[5] Building level 3
[2] Building level 4
[0] Building level 4
[3] Building level 4
[1] Building level 4
[4] Building level 4
[5] Building level 4
[2] Building level 5
[0] Building level 5
[3] Building level 5
[2] Building level 6
[1] Building level 5
[0] Building level 6
[2] Building level 7
[4] Building level 5
[3] Building level 6
[5] Building level 5
[2] Building level 8
[0] Building level 7
[2] Building level 9
[2] Building level 10
[1] Building level 6
[2] Building level 11
[3] Building level 7
[2] Building level 12
[2] Building level 13
[2] Building level 14
[0] Building level 8
[3] Building level 8
[0] Building level 9
[0] Building level 10
[0] Building level 11
[3] Building level 9
[0] Building level 12
[1] Building level 7
[0] Building level 13
[4] Building level 6
[0] Building level 14
14 Level construction complete
[3] Building level 10
[3] Building level 11
[5] Building level 6
[3] Building level 12
[3] Building level 13
[3] Building level 14
[1] Building level 8
[1] Building level 9
[4] Building level 7
[1] Building level 10
[1] Building level 11
[1] Building level 12
[1] Building level 13
[1] Building level 14
[5] Building level 7
[4] Building level 8
[5] Building level 8
[4] Building level 9
[4] Building level 10
[4] Building level 11
[5] Building level 9
[4] Building level 12
[4] Building level 13
[4] Building level 14
[5] Building level 10
[5] Building level 11
[5] Building level 12
[5] Building level 13
[5] Building level 14
initial dot_x = 6.72299e+07
Iter #1 residual = 0.00392146
Iter #2 residual = 0.00300015
Iter #3 residual = 0.00337224
Iter #4 residual = 0.00178586
Iter #5 residual = 0.00250619
Iter #6 residual = 0.0021293
Iter #7 residual = 0.00191182
Iter #8 residual = 0.00246018
Iter #9 residual = 0.0027891
Iter #10 residual = 0.00184824
Iter #11 residual = 0.00256289
Iter #12 residual = 0.00194894
Iter #13 residual = 0.00248545
Iter #14 residual = 0.0019733
Iter #15 residual = 0.00173129
Iter #16 residual = 0.00168886
Iter #17 residual = 0.00195562
Iter #18 residual = 0.00189048
Iter #19 residual = 0.00255899
Iter #20 residual = 0.00141301
Iter #21 residual = 0.0025118
Iter #22 residual = 0.00398287
Iter #23 residual = 0.00215465
Iter #24 residual = 0.00253216
Iter #25 residual = 0.00123092
Iter #26 residual = 0.00200709
Iter #27 residual = 0.00235321
Iter #28 residual = 0.00221319
Iter #29 residual = 0.0022733
Iter #30 residual = 0.000979524
GPU: 30 iters: 6.51022 s: 2.00992 GB/s
GPUAMG:  Solving for pd, Initial residual = 0.0117637, Final residual = 0.000403887, No Iterations 30
[0] Building level 0
[2] Building level 0
[5] Building level 0
[1] Building level 0
[3] Building level 0
[4] Building level 0
[2] Building level 1
[3] Building level 1
[0] Building level 1
[5] Building level 1
[4] Building level 1
[1] Building level 1
[0] Building level 2
[2] Building level 2
[3] Building level 2
[1] Building level 2
[5] Building level 2
[4] Building level 2
[2] Building level 3
[0] Building level 3
[3] Building level 3
[1] Building level 3
[4] Building level 3
[5] Building level 3
[2] Building level 4
[0] Building level 4
[3] Building level 4
[1] Building level 4
[5] Building level 4
[4] Building level 4
[2] Building level 5
[0] Building level 5
[3] Building level 5
[2] Building level 6
[1] Building level 5
[0] Building level 6
[2] Building level 7
[3] Building level 6
[4] Building level 5
[5] Building level 5
[2] Building level 8
[2] Building level 9
[0] Building level 7
[2] Building level 10
[2] Building level 11
[2] Building level 12
[3] Building level 7
[2] Building level 13
[2] Building level 14
[1] Building level 6
[0] Building level 8
[3] Building level 8
[0] Building level 9
[0] Building level 10
[3] Building level 9
[0] Building level 11
[0] Building level 12
[4] Building level 6
[0] Building level 13
[3] Building level 10
[0] Building level 14
14 Level construction complete
[5] Building level 6
[1] Building level 7
[3] Building level 11
[3] Building level 12
[3] Building level 13
[3] Building level 14
[1] Building level 8
[4] Building level 7
[1] Building level 9
[5] Building level 7
[1] Building level 10
[1] Building level 11
[1] Building level 12
[1] Building level 13
[1] Building level 14
[4] Building level 8
[5] Building level 8
[4] Building level 9
[5] Building level 9
[4] Building level 10
[4] Building level 11
[4] Building level 12
[5] Building level 10
[4] Building level 13
[4] Building level 14
[5] Building level 11
[5] Building level 12
[5] Building level 13
[5] Building level 14
initial dot_x = 5.0474e+08
Iter #1 residual = 0.00128254
Iter #2 residual = 0.000306469
Iter #3 residual = 0.000164233
Iter #4 residual = 0.000148448
Iter #5 residual = 7.33302e-05
Iter #6 residual = 7.38612e-05
Iter #7 residual = 4.4958e-05
Iter #8 residual = 5.71534e-05
Iter #9 residual = 3.12677e-05
Iter #10 residual = 2.26058e-05
Iter #11 residual = 1.92796e-05
Iter #12 residual = 2.05995e-05
Iter #13 residual = 1.06203e-05
Iter #14 residual = 1.68419e-05
Iter #15 residual = 1.393e-05
Iter #16 residual = 8.63881e-06
Iter #17 residual = 8.3412e-06
Iter #18 residual = 8.28297e-06
Iter #19 residual = 7.89565e-06
Iter #20 residual = 1.23819e-05
Iter #21 residual = 6.7906e-06
Iter #22 residual = 2.59484e-05
Iter #23 residual = 2.16762e-05
Iter #24 residual = 5.64826e-06
Iter #25 residual = 1.75298e-05
Iter #26 residual = 2.4769e-05
Iter #27 residual = 1.62809e-05
Iter #28 residual = 4.22356e-06
Iter #29 residual = 1.27996e-05
Iter #30 residual = 8.95651e-06
Iter #31 residual = 8.89531e-06
Iter #32 residual = 4.97245e-06
Iter #33 residual = 9.70167e-06
Iter #34 residual = 1.14689e-05
Iter #35 residual = 8.76006e-06
Iter #36 residual = 2.74896e-06
Iter #37 residual = 8.44437e-06
Iter #38 residual = 5.85125e-06
Iter #39 residual = 8.35387e-06
Iter #40 residual = 4.53925e-06
Iter #41 residual = 8.30721e-06
Iter #42 residual = 6.30723e-06
Iter #43 residual = 6.617e-06
Iter #44 residual = 3.20046e-06
GMRES:  Solving for topLevelCorr, Initial residual = 0.813704, Final residual = 0.850306, No Iterations 200
Iter #45 residual = 1.02893e-06
GMRES:  Solving for topLevelCorr, Initial residual = 0.916676, Final residual = 1.03483, No Iterations 200
Iter #46 residual = 1.26319e-06
Iter #47 residual = 1.24268e-05
Iter #48 residual = 1.7967e-05
Iter #49 residual = 5.83145e-06
Iter #50 residual = 8.625e-06
GPU: 50 iters: 10.7842 s: 2.02224 GB/s
GPUAMG:  Solving for pd, Initial residual = 0.0117824, Final residual = 6.69525e-06, No Iterations 50
time step continuity errors : sum local = 4.71988e-10, global = 1.42395e-10, cumulative = -7.63903e-08
ExecutionTime = 415.39 s  ClockTime = 440 s

Courant Number mean: 3.44003e-05 max: 0.0083491 velocity magnitude: 0.130455
Time = 0.008

MULES: Solving for alpha1
Liquid phase volume fraction = 0.00275429  Min(alpha1) = -3.91168e-29  Max(alpha1) = 1
MULES: Solving for alpha1
Liquid phase volume fraction = 0.00275429  Min(alpha1) = -2.71881e-30  Max(alpha1) = 1
[5] Building level 0
[3] Building level 0
[1] Building level 0
[4] Building level 0
[0] Building level 0
[2] Building level 0
[3] Building level 1
[0] Building level 1
[2] Building level 1
[4] Building level 1
[1] Building level 1
[5] Building level 1
[0] Building level 2
Reconstruction on level 2
[2] Building level 2
[1] Building level 2
[3] Building level 2
[2] Building level 3
[3] Building level 3
Creating AMGLevel 
[2] Building level 4
[3] Building level 4
[0] Building level 3
Reconstruction on level 3
[1] Building level 3
[2] Building level 5
[3] Building level 5
[5] Building level 2
[4] Building level 2
Creating AMGLevel 
[0] Building level 4
Reconstruction on level 4
[1] Building level 4
[2] Building level 6
[3] Building level 6
[2] Building level 7
[3] Building level 7
[2] Building level 8
[3] Building level 8
[2] Building level 9
[3] Building level 9
[2] Building level 10
[3] Building level 10
[2] Building level 11
[3] Building level 11
Creating AMGLevel 
[2] Building level 12
[3] Building level 12
[0] Building level 5
Reconstruction on level 5
[2] Building level 13
[3] Building level 13
[2] Building level 14
[3] Building level 14
[1] Building level 5
[4] Building level 3
[5] Building level 3
Creating AMGLevel 
[0] Building level 6
Reconstruction on level 6
[1] Building level 6
Creating AMGLevel 
[0] Building level 7
Reconstruction on level 7
[1] Building level 7
Creating AMGLevel 
[0] Building level 8
Reconstruction on level 8
Creating AMGLevel 
[0] Building level 9
Reconstruction on level 9
[1] Building level 8
Creating AMGLevel 
[0] Building level 10
Reconstruction on level 10
Creating AMGLevel 
[0] Building level 11
Reconstruction on level 11
[1] Building level 9
Creating AMGLevel 
[0] Building level 12
Reconstruction on level 12
Creating AMGLevel 
[0] Building level 13
Reconstruction on level 13
Creating AMGLevel 
[0] Building level 14
Reconstruction on level 14
Creating AMGLevel 
14 Level construction complete
[1] Building level 10
[1] Building level 11
[1] Building level 12
[1] Building level 13
[1] Building level 14
[4] Building level 4
[5] Building level 4
[4] Building level 5
[5] Building level 5
[4] Building level 6
[5] Building level 6
[4] Building level 7
[5] Building level 7
[4] Building level 8
[5] Building level 8
[4] Building level 9
[4] Building level 10
[5] Building level 9
[...]
Iter #36 residual = 5.47051e-06
Iter #37 residual = 5.91327e-06
Iter #38 residual = 1.72092e-06
Iter #39 residual = 4.06669e-06
Iter #40 residual = 8.5276e-06
Iter #41 residual = 5.25346e-06
Iter #42 residual = 1.97866e-06
Iter #43 residual = 1.04809e-06
Iter #44 residual = 2.03328e-06
Iter #45 residual = 8.93799e-07
Iter #46 residual = 1.86487e-06
Iter #47 residual = 7.13302e-07
Iter #48 residual = 1.12548e-06
Iter #49 residual = 7.83262e-07
Iter #50 residual = 8.53574e-07
GPU: 50 iters: 10.687 s: 2.04065 GB/s
GPUAMG:  Solving for pd, Initial residual = 0.0119582, Final residual = 7.21755e-07, No Iterations 50
time step continuity errors : sum local = 1.91715e-10, global = 1.56823e-10, cumulative = -7.62335e-08
ExecutionTime = 468.08 s  ClockTime = 493 s

Courant Number mean: 3.95057e-05 max: 0.00903189 velocity magnitude: 0.140368
Time = 0.009

MULES: Solving for alpha1
Liquid phase volume fraction = 0.00275429  Min(alpha1) = -4.58356e-30  Max(alpha1) = 1
MULES: Solving for alpha1
Liquid phase volume fraction = 0.00275429  Min(alpha1) = -9.00066e-30  Max(alpha1) = 1
[0] Building level 0
[5] Building level 0
[4] Building level 0
[1] Building level 0
[3] Building level 0
[2] Building level 0
[0] Building level 1
Reconstruction on level 1
[3] Building level 1
[2] Building level 1
[5] Building level 1
[1] Building level 1
[4] Building level 1
[2] Building level 2
[3] Building level 2
[4] Building level 2
[2] Building level 3
[3] Building level 3
[2] Building level 4
[3] Building level 4
[4] Building level 3
[3] Building level 5
[2] Building level 5
Creating AMGLevel 
[0] Building level 2
Reconstruction on level 2
[5] Building level 2
[1] Building level 2
[3] Building level 6
[2] Building level 6
[4] Building level 4
[3] Building level 7
[2] Building level 7
[2] Building level 8
[3] Building level 8
[3] Building level 9
[2] Building level 9
[3] Building level 10
[2] Building level 10
[3] Building level 11
[2] Building level 11
[3] Building level 12
[2] Building level 12
[3] Building level 13
[2] Building level 13
[3] Building level 14
[2] Building level 14
[4] Building level 5
Creating AMGLevel 
[0] Building level 3
Reconstruction on level 3
[5] Building level 3
[1] Building level 3
[4] Building level 6
[4] Building level 7
[4] Building level 8
[4] Building level 9
[4] Building level 10
[4] Building level 11
[4] Building level 12
[4] Building level 13
[4] Building level 14
Creating AMGLevel 
[0] Building level 4
Reconstruction on level 4
[5] Building level 4
[1] Building level 4
Creating AMGLevel 
[0] Building level 5
Reconstruction on level 5
[5] Building level 5
[1] Building level 5
Creating AMGLevel 
[0] Building level 6
Reconstruction on level 6
[5] Building level 6
[1] Building level 6
Creating AMGLevel 
[0] Building level 7
Reconstruction on level 7
[5] Building level 7
[1] Building level 7
Creating AMGLevel 
[0] Building level 8
Reconstruction on level 8
[5] Building level 8
Creating AMGLevel 
[0] Building level 9
Reconstruction on level 9
[1] Building level 8
[5] Building level 9
Creating AMGLevel 
[0] Building level 10
Reconstruction on level 10
[5] Building level 10
Creating AMGLevel 
[0] Building level 11
Reconstruction on level 11
[5] Building level 11
[1] Building level 9
Creating AMGLevel 
[0] Building level 12
Reconstruction on level 12
[5] Building level 12
Creating AMGLevel 
[0] Building level 13
Reconstruction on level 13
[5] Building level 13
Creating AMGLevel 
[0] Building level 14
Reconstruction on level 14
Creating AMGLevel 
[5] Building level 14
14 Level construction complete
[1] Building level 10
[1] Building level 11
[1] Building level 12
[1] Building level 13
[1] Building level 14
initial dot_x = 3.55473e+08
Iter #1 residual = 0.0210966
Iter #2 residual = 0.0113293
Iter #3 residual = 0.00815776
Iter #4 residual = 0.00494445
Iter #5 residual = 0.00320544
Iter #6 residual = 0.00253514
Iter #7 residual = 0.00167732
Iter #8 residual = 0.00297637
Iter #9 residual = 0.00174841
Iter #10 residual = 0.00144171
Iter #11 residual = 0.00143913
GPU: 11 iters: 2.45564 s: 1.9538 GB/s
GPUAMG:  Solving for pd, Initial residual = 0.0270449, Final residual = 0.00108303, No Iterations 11
[0] Building level 0
[3] Building level 0
[5] Building level 0
[4] Building level 0
[1] Building level 0
[2] Building level 0
[0] Building level 1
[2] Building level 1
[3] Building level 1
[4] Building level 1
[5] Building level 1
[1] Building level 1
[2] Building level 2
[0] Building level 2
[3] Building level 2
[5] Building level 2
[1] Building level 2
[4] Building level 2
[2] Building level 3
[3] Building level 3
[0] Building level 3
[5] Building level 3
[4] Building level 3
[1] Building level 3
[2] Building level 4
[3] Building level 4
[0] Building level 4
[5] Building level 4
[4] Building level 4
[2] Building level 5
[1] Building level 4
[3] Building level 5
[2] Building level 6
[0] Building level 5
[5] Building level 5
[4] Building level 5
[2] Building level 7
[3] Building level 6
[1] Building level 5
[2] Building level 8
[2] Building level 9
[2] Building level 10
[2] Building level 11
[2] Building level 12
[2] Building level 13
[2] Building level 14
[0] Building level 6
[3] Building level 7
[3] Building level 8
[5] Building level 6
[4] Building level 6
[3] Building level 9
[0] Building level 7
[3] Building level 10
[3] Building level 11
[3] Building level 12
[3] Building level 13
[3] Building level 14
[1] Building level 6
[0] Building level 8
[4] Building level 7
[5] Building level 7
[0] Building level 9
[0] Building level 10
[0] Building level 11
[0] Building level 12
[0] Building level 13
[0] Building level 14
14 Level construction complete
[4] Building level 8
[5] Building level 8
[1] Building level 7
[4] Building level 9
[5] Building level 9
[4] Building level 10
[5] Building level 10
[4] Building level 11
[4] Building level 12
[4] Building level 13
[5] Building level 11
[4] Building level 14
[5] Building level 12
[1] Building level 8
[5] Building level 13
[5] Building level 14
[1] Building level 9
[1] Building level 10
[1] Building level 11
[1] Building level 12
[1] Building level 13
[1] Building level 14
initial dot_x = 9.91898e+07
Iter #1 residual = 0.00300392
Iter #2 residual = 0.00188983
Iter #3 residual = 0.00110388
Iter #4 residual = 0.00116974
Iter #5 residual = 0.000821479
Iter #6 residual = 0.00329403
Iter #7 residual = 0.00205358
Iter #8 residual = 0.0011776
Iter #9 residual = 0.000818325
Iter #10 residual = 0.000608216
Iter #11 residual = 0.00143077
Iter #12 residual = 0.00104986
Iter #13 residual = 0.00121469
Iter #14 residual = 0.00071857
GPU: 14 iters: 3.0492 s: 2.0026 GB/s
GPUAMG:  Solving for pd, Initial residual = 0.0119749, Final residual = 0.000258857, No Iterations 14
[1] Building level 0
[4] Building level 0
[2] Building level 0
[5] Building level 0
[3] Building level 0
[0] Building level 0
[0] Building level 1
[3] Building level 1
[2] Building level 1
[5] Building level 1
[4] Building level 1
[1] Building level 1
[2] Building level 2
[0] Building level 2
[3] Building level 2
[4] Building level 2
[5] Building level 2
[1] Building level 2
[2] Building level 3
[3] Building level 3
[0] Building level 3
[5] Building level 3
[4] Building level 3
[1] Building level 3
[2] Building level 4
[3] Building level 4
[5] Building level 4
[0] Building level 4
[4] Building level 4
[1] Building level 4
[2] Building level 5
[3] Building level 5
[2] Building level 6
[5] Building level 5
[4] Building level 5
[0] Building level 5
[1] Building level 5
[2] Building level 7
[3] Building level 6
[2] Building level 8
[2] Building level 9
[2] Building level 10
[2] Building level 11
[0] Building level 6
[2] Building level 12
[2] Building level 13
[5] Building level 6
[2] Building level 14
[3] Building level 7
[4] Building level 6
[3] Building level 8
[1] Building level 6
[3] Building level 9
[0] Building level 7
[3] Building level 10
[5] Building level 7
[3] Building level 11
[4] Building level 7
[3] Building level 12
[3] Building level 13
[3] Building level 14
[0] Building level 8
[5] Building level 8
[4] Building level 8
[0] Building level 9
[0] Building level 10
[5] Building level 9
[4] Building level 9
[1] Building level 7
[0] Building level 11
[0] Building level 12
[5] Building level 10
[0] Building level 13
[0] Building level 14
14 Level construction complete
[4] Building level 10
[5] Building level 11
[5] Building level 12
[4] Building level 11
[5] Building level 13
[5] Building level 14
[4] Building level 12
[4] Building level 13
[4] Building level 14
[1] Building level 8
[1] Building level 9
[1] Building level 10
[1] Building level 11
[1] Building level 12
[1] Building level 13
[1] Building level 14
initial dot_x = 2.97445e+08
Iter #1 residual = 0.000576759
Iter #2 residual = 0.000313653
Iter #3 residual = 0.000201634
Iter #4 residual = 0.000122758
Iter #5 residual = 6.52159e-05
Iter #6 residual = 8.08719e-05
Iter #7 residual = 4.70574e-05
Iter #8 residual = 7.67186e-05
Iter #9 residual = 7.78729e-05
Iter #10 residual = 2.43192e-05
Iter #11 residual = 2.12611e-05
Iter #12 residual = 2.14087e-05
Iter #13 residual = 3.34319e-05
Iter #14 residual = 1.47435e-05
Iter #15 residual = 1.66396e-05
Iter #16 residual = 1.33494e-05
Iter #17 residual = 7.13794e-06
Iter #18 residual = 8.33787e-06
Iter #19 residual = 6.46276e-06
Iter #20 residual = 1.24101e-05
Iter #21 residual = 7.90752e-06
Iter #22 residual = 2.65095e-05
Iter #23 residual = 2.54286e-05
Iter #24 residual = 5.78417e-06
Iter #25 residual = 1.33909e-05
Iter #26 residual = 8.34359e-06
Iter #27 residual = 1.7481e-05
Iter #28 residual = 1.50407e-05
Iter #29 residual = 3.22245e-06
Iter #30 residual = 4.367e-06
Iter #31 residual = 3.24498e-06
Iter #32 residual = 5.44227e-06
Iter #33 residual = 3.67975e-06
Iter #34 residual = 3.11648e-06
Iter #35 residual = 4.12772e-06
Iter #36 residual = 2.94861e-06
Iter #37 residual = 1.00292e-05
Iter #38 residual = 6.33161e-06
Iter #39 residual = 3.55075e-06
Iter #40 residual = 1.79111e-06
Iter #41 residual = 1.65467e-06
Iter #42 residual = 1.09073e-06
Iter #43 residual = 1.3174e-06
Iter #44 residual = 1.10217e-06
Iter #45 residual = 9.66641e-07
Iter #46 residual = 1.27863e-06
Iter #47 residual = 1.12749e-06
Iter #48 residual = 9.69371e-07
Iter #49 residual = 1.19582e-06
Iter #50 residual = 9.71941e-07
GPU: 50 iters: 10.3848 s: 2.10001 GB/s
GPUAMG:  Solving for pd, Initial residual = 0.0118541, Final residual = 1.0885e-06, No Iterations 50
time step continuity errors : sum local = 5.80282e-11, global = 2.60611e-12, cumulative = -7.62309e-08
ExecutionTime = 519.72 s  ClockTime = 546 s

Courant Number mean: 4.46235e-05 max: 0.00971288 velocity magnitude: 0.149363
Time = 0.01

MULES: Solving for alpha1
Liquid phase volume fraction = 0.00275429  Min(alpha1) = -1.393e-29  Max(alpha1) = 1
MULES: Solving for alpha1
Liquid phase volume fraction = 0.00275429  Min(alpha1) = -1.86263e-29  Max(alpha1) = 1
[5] Building level 0
[2] Building level 0
[3] Building level 0
[1] Building level 0
[0] Building level 0
[4] Building level 0
[2] Building level 1
[0] Building level 1
[3] Building level 1
[5] Building level 1
[4] Building level 1
[1] Building level 1
[2] Building level 2
[0] Building level 2
Reconstruction on level 2
[3] Building level 2
[5] Building level 2
[4] Building level 2
[2] Building level 3
[3] Building level 3
Creating AMGLevel 
[2] Building level 4
[3] Building level 4
[0] Building level 3
Reconstruction on level 3
[5] Building level 3
[4] Building level 3
[2] Building level 5
[3] Building level 5
[1] Building level 2
Creating AMGLevel 
[0] Building level 4
Reconstruction on level 4
[4] Building level 4
[5] Building level 4
[2] Building level 6
[3] Building level 6
[3] Building level 7
[2] Building level 7
[2] Building level 8
[3] Building level 8
[2] Building level 9
[3] Building level 9
[3] Building level 10
[2] Building level 10
[3] Building level 11
[2] Building level 11
Creating AMGLevel 
[3] Building level 12
[2] Building level 12
[0] Building level 5
Reconstruction on level 5
[3] Building level 13
[2] Building level 13
[3] Building level 14
[2] Building level 14
[5] Building level 5
[4] Building level 5
[1] Building level 3
Creating AMGLevel 
[0] Building level 6
Reconstruction on level 6
[5] Building level 6
[4] Building level 6
Creating AMGLevel 
[0] Building level 7
Reconstruction on level 7
[5] Building level 7
[4] Building level 7
Creating AMGLevel 
[0] Building level 8
Reconstruction on level 8
[5] Building level 8
[4] Building level 8
Creating AMGLevel 
[0] Building level 9
Reconstruction on level 9
[5] Building level 9
[4] Building level 9
Creating AMGLevel 
[0] Building level 10
Reconstruction on level 10
[5] Building level 10
Creating AMGLevel 
[4] Building level 10
[0] Building level 11
Reconstruction on level 11
[5] Building level 11
Creating AMGLevel 
[0] Building level 12
Reconstruction on level 12
[4] Building level 11
[5] Building level 12
Creating AMGLevel 
[0] Building level 13
Reconstruction on level 13
[5] Building level 13
[4] Building level 12
Creating AMGLevel 
[0] Building level 14
Reconstruction on level 14
Creating AMGLevel 
14 Level construction complete
[5] Building level 14
[4] Building level 13
[4] Building level 14
[1] Building level 4
[1] Building level 5
[1] Building level 6
[1] Building level 7
[1] Building level 8
[1] Building level 9
[1] Building level 10
[1] Building level 11
[1] Building level 12
[1] Building level 13
[1] Building level 14
initial dot_x = 2.87567e+08
Iter #1 residual = 0.021677
Iter #2 residual = 0.0133074
Iter #3 residual = 0.00839621
Iter #4 residual = 0.00505754
Iter #5 residual = 0.00335893
Iter #6 residual = 0.00244367
Iter #7 residual = 0.00171915
Iter #8 residual = 0.00190683
GPU: 8 iters: 1.84349 s: 1.89278 GB/s
GPUAMG:  Solving for pd, Initial residual = 0.0276045, Final residual = 0.00132425, No Iterations 8
[5] Building level 0
[4] Building level 0
[2] Building level 0
[1] Building level 0
[0] Building level 0
[3] Building level 0
[2] Building level 1
[3] Building level 1
[0] Building level 1
[4] Building level 1
[1] Building level 1
[5] Building level 1
[2] Building level 2
[3] Building level 2
[1] Building level 2
[0] Building level 2
[5] Building level 2
[4] Building level 2
[2] Building level 3
[3] Building level 3
[1] Building level 3
[0] Building level 3
[4] Building level 3
[5] Building level 3
[3] Building level 4
[0] Building level 4
[2] Building level 4
[1] Building level 4
[4] Building level 4
[5] Building level 4
[3] Building level 5
[2] Building level 5
[0] Building level 5
[1] Building level 5
[3] Building level 6
[2] Building level 6
[0] Building level 6
[4] Building level 5
[5] Building level 5
[3] Building level 7
[1] Building level 6
[2] Building level 7
[0] Building level 7
[3] Building level 8
[3] Building level 9
[2] Building level 8
[0] Building level 8
[3] Building level 10
[3] Building level 11
[3] Building level 12
[3] Building level 13
[3] Building level 14
[0] Building level 9
[2] Building level 9
[1] Building level 7
[2] Building level 10
[0] Building level 10
[2] Building level 11
[0] Building level 11
[4] Building level 6
[2] Building level 12
[0] Building level 12
[2] Building level 13
[0] Building level 13
[2] Building level 14
[0] Building level 14
14 Level construction complete
[5] Building level 6
[1] Building level 8
[1] Building level 9
[1] Building level 10
[1] Building level 11
[4] Building level 7
[1] Building level 12
[1] Building level 13
[1] Building level 14
[5] Building level 7
[4] Building level 8
[4] Building level 9
[5] Building level 8
[4] Building level 10
[4] Building level 11
[4] Building level 12
[4] Building level 13
[4] Building level 14
[5] Building level 9
[5] Building level 10
[5] Building level 11
[5] Building level 12
[5] Building level 13
[5] Building level 14
initial dot_x = 5.89851e+07
Iter #1 residual = 0.00393796
Iter #2 residual = 0.00263686
Iter #3 residual = 0.00145352
Iter #4 residual = 0.000847512
Iter #5 residual = 0.000620293
GPU: 5 iters: 1.23097 s: 1.77163 GB/s
GPUAMG:  Solving for pd, Initial residual = 0.0123605, Final residual = 0.000423727, No Iterations 5
[3] Building level 0
[4] Building level 0
[0] Building level 0
[2] Building level 0
[1] Building level 0
[5] Building level 0
[0] Building level 1
[2] Building level 1
[3] Building level 1
[5] Building level 1
[4] Building level 1
[1] Building level 1
[2] Building level 2
[1] Building level 2
[0] Building level 2
[3] Building level 2
[5] Building level 2
[4] Building level 2
[2] Building level 3
[1] Building level 3
[0] Building level 3
[3] Building level 3
[4] Building level 3
[5] Building level 3
[0] Building level 4
[3] Building level 4
[2] Building level 4
[1] Building level 4
[4] Building level 4
[5] Building level 4
[3] Building level 5
[2] Building level 5
[0] Building level 5
[1] Building level 5
[3] Building level 6
[2] Building level 6
[0] Building level 6
[4] Building level 5
[5] Building level 5
[3] Building level 7
[0] Building level 7
[1] Building level 6
[2] Building level 7
[3] Building level 8
[0] Building level 8
[2] Building level 8
[3] Building level 9
[3] Building level 10
[0] Building level 9
[2] Building level 9
[3] Building level 11
[3] Building level 12
[3] Building level 13
[0] Building level 10
[3] Building level 14
[4] Building level 6
[2] Building level 10
[0] Building level 11
[0] Building level 12
[0] Building level 13
[2] Building level 11
[0] Building level 14
14 Level construction complete
[1] Building level 7
[2] Building level 12
[2] Building level 13
[2] Building level 14
[5] Building level 6
[1] Building level 8
[1] Building level 9
[4] Building level 7
[1] Building level 10
[1] Building level 11
[1] Building level 12
[1] Building level 13
[1] Building level 14
[5] Building level 7
[4] Building level 8
[4] Building level 9
[4] Building level 10
[5] Building level 8
[4] Building level 11
[4] Building level 12
[4] Building level 13
[4] Building level 14
[5] Building level 9
[5] Building level 10
[5] Building level 11
[5] Building level 12
[5] Building level 13
[5] Building level 14
initial dot_x = 2.63691e+08
Iter #1 residual = 0.000565393
Iter #2 residual = 0.000286091
Iter #3 residual = 0.000183271
Iter #4 residual = 0.000116306
Iter #5 residual = 0.000106442
Iter #6 residual = 7.034e-05
Iter #7 residual = 7.70393e-05
Iter #8 residual = 4.59424e-05
Iter #9 residual = 9.7429e-05
Iter #10 residual = 8.90786e-05
Iter #11 residual = 5.8348e-05
Iter #12 residual = 3.46676e-05
Iter #13 residual = 3.28159e-05
Iter #14 residual = 2.81845e-05
Iter #15 residual = 2.62435e-05
Iter #16 residual = 3.37776e-05
Iter #17 residual = 2.7674e-05
Iter #18 residual = 4.15472e-05
Iter #19 residual = 2.86484e-05
Iter #20 residual = 7.4382e-05
Iter #21 residual = 6.6796e-05
Iter #22 residual = 2.59931e-05
Iter #23 residual = 8.91572e-05
Iter #24 residual = 6.2017e-05
Iter #25 residual = 3.22023e-05
Iter #26 residual = 2.42544e-05
Iter #27 residual = 1.25419e-05
Iter #28 residual = 9.77659e-06
Iter #29 residual = 9.82923e-06
Iter #30 residual = 6.31383e-06
Iter #31 residual = 3.6759e-06
Iter #32 residual = 3.75461e-06
Iter #33 residual = 2.27721e-06
Iter #34 residual = 6.42872e-06
Iter #35 residual = 3.63712e-06
Iter #36 residual = 2.71867e-06
Iter #37 residual = 2.63739e-06
Iter #38 residual = 1.76944e-06
Iter #39 residual = 4.87046e-06
Iter #40 residual = 3.20002e-06
Iter #41 residual = 2.18057e-06
Iter #42 residual = 2.1446e-06
Iter #43 residual = 1.92931e-06
Iter #44 residual = 9.80701e-07
Iter #45 residual = 1.55624e-06
Iter #46 residual = 1.20693e-06
Iter #47 residual = 3.86749e-06
Iter #48 residual = 2.57019e-06
Iter #49 residual = 1.93659e-06
Iter #50 residual = 1.29335e-06
GPU: 50 iters: 10.4431 s: 2.08831 GB/s
GPUAMG:  Solving for pd, Initial residual = 0.0117492, Final residual = 1.13131e-06, No Iterations 50
time step continuity errors : sum local = 9.8618e-11, global = -4.23172e-11, cumulative = -7.62732e-08
ExecutionTime = 568.91 s  ClockTime = 596 s

End

Finalising parallel run
