 Data for JOB [53560,1] offset 0

 ========================   JOB MAP   ========================

 Data for node: ivb106	Num slots: 6	Max slots: 0	Num procs: 6
 	Process OMPI jobid: [53560,1] App: 0 Process rank: 0
 	Process OMPI jobid: [53560,1] App: 0 Process rank: 1
 	Process OMPI jobid: [53560,1] App: 0 Process rank: 2
 	Process OMPI jobid: [53560,1] App: 0 Process rank: 3
 	Process OMPI jobid: [53560,1] App: 0 Process rank: 4
 	Process OMPI jobid: [53560,1] App: 0 Process rank: 5

 =============================================================
[ivb106:23210] MCW rank 3 bound to socket 0[core 3[hwt 0]]: [./././B/./././././.][./././././././././.]
[ivb106:23210] MCW rank 4 bound to socket 0[core 4[hwt 0]]: [././././B/././././.][./././././././././.]
[ivb106:23210] MCW rank 5 bound to socket 0[core 5[hwt 0]]: [./././././B/./././.][./././././././././.]
[ivb106:23210] MCW rank 0 bound to socket 0[core 0[hwt 0]]: [B/././././././././.][./././././././././.]
[ivb106:23210] MCW rank 1 bound to socket 0[core 1[hwt 0]]: [./B/./././././././.][./././././././././.]
[ivb106:23210] MCW rank 2 bound to socket 0[core 2[hwt 0]]: [././B/././././././.][./././././././././.]
/*---------------------------------------------------------------------------*\
| =========                 |                                                 |
| \\      /  F ield         | foam-extend: Open Source CFD                    |
|  \\    /   O peration     | Version:     3.1                                |
|   \\  /    A nd           | Web:         http://www.extend-project.de       |
|    \\/     M anipulation  |                                                 |
\*---------------------------------------------------------------------------*/
Build    : 3.1-e2da948002a2
Exec     : interFoam -parallel
Date     : May 21 2016
Time     : 08:04:22
Host     : ivb106
PID      : 23260
CtrlDict : /home-2/vplatonov/foam/foam-extend-3.1/etc/controlDict
Case     : /home/vplatonov/tests/rt12mln
nProcs   : 6
Slaves : 
5
(
ivb106.23252
ivb106.23265
ivb106.23256
ivb106.23251
ivb106.23268
)

Pstream initialized with:
    floatTransfer     : 0
    nProcsSimpleSum   : 0
    commsType         : blocking
SigFpe   : Enabling floating point exception trapping (FOAM_SIGFPE).

// * * * * * * * * * * * * * * * * * * * * * * * * * * * * * * * * * * * * * //
Create time

Create mesh for time = 0


Reading g
Reading field pd

Reading field alpha1

Reading field U

Reading/calculating face flux field phi

Reading transportProperties

Selecting incompressible transport model Newtonian
Selecting incompressible transport model Newtonian
Calculating field g.h

Selecting turbulence model type laminar
time step continuity errors : sum local = 0, global = 0, cumulative = 0
Created persistent data with name pcorr
GPUAMG:  Solving for pcorr, Initial residual = 0, Final residual = 0, No Iterations 0
time step continuity errors : sum local = 0, global = 0, cumulative = 0
Courant Number mean: 0 max: 0 velocity magnitude: 0

Starting time loop

Courant Number mean: 0 max: 0 velocity magnitude: 0
Time = 0.001

MULES: Solving for alpha1
Liquid phase volume fraction = 0.00275421  Min(alpha1) = 0  Max(alpha1) = 1
MULES: Solving for alpha1
Liquid phase volume fraction = 0.00275421  Min(alpha1) = 0  Max(alpha1) = 1
Created persistent data with name pd
[1] Building level 0
[2] Building level 0
[3] Building level 0
[4] Building level 0
[5] Building level 0
[0] Building level 0
[4] Building level 1
Creating AMGLevel 
[2] Building level 1
[3] Building level 1
[1] Building level 1
[0] Building level 1
[5] Building level 1
[4] Building level 2
Creating AMGLevel 
[3] Building level 2
[2] Building level 2
[0] Building level 2
[1] Building level 2
[5] Building level 2
[4] Building level 3
Creating AMGLevel 
[3] Building level 3
[0] Building level 3
[2] Building level 3
[5] Building level 3
[1] Building level 3
[4] Building level 4
Creating AMGLevel 
[0] Building level 4
[3] Building level 4
[2] Building level 4
[5] Building level 4
[1] Building level 4
[4] Building level 5
Creating AMGLevel 
[0] Building level 5
[3] Building level 5
[2] Building level 5
[5] Building level 5
[1] Building level 5
[4] Building level 6
Creating AMGLevel 
[0] Building level 6
[3] Building level 6
[4] Building level 7
[5] Building level 6
[2] Building level 6
Creating AMGLevel 
[0] Building level 7
[1] Building level 6
[4] Building level 8
Creating AMGLevel 
[0] Building level 8
[4] Building level 9
[5] Building level 7
[3] Building level 7
[4] Building level 10
[4] Building level 11
Creating AMGLevel 
[0] Building level 9
[2] Building level 7
[4] Building level 12
[4] Building level 13
[4] Building level 14
Creating AMGLevel 
[0] Building level 10
Creating AMGLevel 
[0] Building level 11
[1] Building level 7
[5] Building level 8
Creating AMGLevel 
[0] Building level 12
Creating AMGLevel 
[0] Building level 13
Creating AMGLevel 
[0] Building level 14
Creating AMGLevel 
14 Level construction complete
[3] Building level 8
[5] Building level 9
[2] Building level 8
[1] Building level 8
[3] Building level 9
[5] Building level 10
[3] Building level 10
[5] Building level 11
[3] Building level 11
[2] Building level 9
[1] Building level 9
[5] Building level 12
[3] Building level 12
[5] Building level 13
[5] Building level 14
[3] Building level 13
[3] Building level 14
[1] Building level 10
[2] Building level 10
[2] Building level 11
[1] Building level 11
[1] Building level 12
[2] Building level 12
[1] Building level 13
[2] Building level 13
[1] Building level 14
[2] Building level 14
initial dot_x = 0
Iter #1 residual = 0.0735088
GPU: 1 iters: 0.422512 s: 1.03264 GB/s
GPUAMG:  Solving for pd, Initial residual = 1, Final residual = 0.0272231, No Iterations 1
[0] Building level 0
[5] Building level 0
[1] Building level 0
[2] Building level 0
[3] Building level 0
[4] Building level 0
[5] Building level 1
[1] Building level 1
[4] Building level 1
[0] Building level 1
[2] Building level 1
[3] Building level 1
[5] Building level 2
[1] Building level 2
[2] Building level 2
[4] Building level 2
[0] Building level 2
[3] Building level 2
[2] Building level 3
[5] Building level 3
[1] Building level 3
[3] Building level 3
[0] Building level 3
[4] Building level 3
[2] Building level 4
[3] Building level 4
[5] Building level 4
[1] Building level 4
[4] Building level 4
[0] Building level 4
[2] Building level 5
[3] Building level 5
[5] Building level 5
[1] Building level 5
[4] Building level 5
[0] Building level 5
[2] Building level 6
[3] Building level 6
[5] Building level 6
[1] Building level 6
[4] Building level 6
[2] Building level 7
[0] Building level 6
[2] Building level 8
[3] Building level 7
[5] Building level 7
[2] Building level 9
[1] Building level 7
[4] Building level 7
[2] Building level 10
[2] Building level 11
[2] Building level 12
[2] Building level 13
[2] Building level 14
[3] Building level 8
[0] Building level 7
[5] Building level 8
[1] Building level 8
[4] Building level 8
[3] Building level 9
[5] Building level 9
[3] Building level 10
[1] Building level 9
[5] Building level 10
[3] Building level 11
[4] Building level 9
[1] Building level 10
[0] Building level 8
[3] Building level 12
[5] Building level 11
[3] Building level 13
[3] Building level 14
[5] Building level 12
[1] Building level 11
[5] Building level 13
[5] Building level 14
[1] Building level 12
[4] Building level 10
[1] Building level 13
[1] Building level 14
[4] Building level 11
[4] Building level 12
[4] Building level 13
[0] Building level 9
[4] Building level 14
[0] Building level 10
[0] Building level 11
[0] Building level 12
[0] Building level 13
[0] Building level 14
14 Level construction complete
initial dot_x = 75889.3
Iter #1 residual = 0.00835044
Iter #2 residual = 0.00430563
Iter #3 residual = 0.00228551
Iter #4 residual = 0.00122377
GPU: 4 iters: 1.0452 s: 1.66974 GB/s
GPUAMG:  Solving for pd, Initial residual = 0.0195871, Final residual = 0.000647023, No Iterations 4
[1] Building level 0
[5] Building level 0
[3] Building level 0
[2] Building level 0
[4] Building level 0
[0] Building level 0
[5] Building level 1
[1] Building level 1
[4] Building level 1
[0] Building level 1
[3] Building level 1
[2] Building level 1
[5] Building level 2
[2] Building level 2
[1] Building level 2
[4] Building level 2
[0] Building level 2
[3] Building level 2
[2] Building level 3
[5] Building level 3
[1] Building level 3
[3] Building level 3
[0] Building level 3
[4] Building level 3
[2] Building level 4
[3] Building level 4
[5] Building level 4
[4] Building level 4
[1] Building level 4
[0] Building level 4
[2] Building level 5
[3] Building level 5
[5] Building level 5
[4] Building level 5
[1] Building level 5
[0] Building level 5
[2] Building level 6
[3] Building level 6
[5] Building level 6
[2] Building level 7
[4] Building level 6
[1] Building level 6
[0] Building level 6
[2] Building level 8
[3] Building level 7
[5] Building level 7
[2] Building level 9
[2] Building level 10
[4] Building level 7
[2] Building level 11
[2] Building level 12
[1] Building level 7
[2] Building level 13
[2] Building level 14
[3] Building level 8
[0] Building level 7
[5] Building level 8
[4] Building level 8
[3] Building level 9
[5] Building level 9
[1] Building level 8
[3] Building level 10
[5] Building level 10
[0] Building level 8
[3] Building level 11
[5] Building level 11
[4] Building level 9
[5] Building level 12
[1] Building level 9
[3] Building level 12
[5] Building level 13
[5] Building level 14
[3] Building level 13
[3] Building level 14
[4] Building level 10
[1] Building level 10
[4] Building level 11
[0] Building level 9
[4] Building level 12
[1] Building level 11
[4] Building level 13
[4] Building level 14
[1] Building level 12
[1] Building level 13
[1] Building level 14
[0] Building level 10
[0] Building level 11
[0] Building level 12
[0] Building level 13
[0] Building level 14
14 Level construction complete
initial dot_x = 126222
Iter #1 residual = 0.00255173
Iter #2 residual = 0.00115626
Iter #3 residual = 0.000570581
Iter #4 residual = 0.000292629
Iter #5 residual = 0.00016082
Iter #6 residual = 9.83998e-05
Iter #7 residual = 6.26925e-05
Iter #8 residual = 4.04094e-05
Iter #9 residual = 2.98132e-05
Iter #10 residual = 1.86905e-05
Iter #11 residual = 1.64355e-05
Iter #12 residual = 1.05718e-05
Iter #13 residual = 1.71007e-05
Iter #14 residual = 1.15542e-05
Iter #15 residual = 4.29697e-06
Iter #16 residual = 5.31862e-06
Iter #17 residual = 4.02128e-06
Iter #18 residual = 2.1017e-06
Iter #19 residual = 3.79224e-06
Iter #20 residual = 2.76033e-06
Iter #21 residual = 1.4016e-06
Iter #22 residual = 1.30787e-06
Iter #23 residual = 3.74313e-06
Iter #24 residual = 2.48547e-06
Iter #25 residual = 6.14681e-06
Iter #26 residual = 2.76373e-06
Iter #27 residual = 1.54631e-06
Iter #28 residual = 1.11754e-06
Iter #29 residual = 1.26001e-06
Iter #30 residual = 1.95703e-06
Iter #31 residual = 1.16799e-06
Iter #32 residual = 9.97902e-07
Iter #33 residual = 7.49303e-07
Iter #34 residual = 5.60209e-07
Iter #35 residual = 3.38439e-07
Iter #36 residual = 2.72687e-07
Iter #37 residual = 4.3363e-07
Iter #38 residual = 2.37072e-07
Iter #39 residual = 1.85752e-07
Iter #40 residual = 1.34731e-07
Iter #41 residual = 1.4251e-07
Iter #42 residual = 1.12113e-07
GPU: 42 iters: 8.99112 s: 2.03808 GB/s
GPUAMG:  Solving for pd, Initial residual = 0.00627283, Final residual = 5.96963e-08, No Iterations 42
time step continuity errors : sum local = 4.87313e-12, global = -2.92005e-24, cumulative = -2.92005e-24
ExecutionTime = 69.82 s  ClockTime = 84 s

Courant Number mean: 4.83977e-06 max: 0.00216219 velocity magnitude: 0.0337842
Time = 0.002

MULES: Solving for alpha1
Liquid phase volume fraction = 0.00275421  Min(alpha1) = 0  Max(alpha1) = 1
MULES: Solving for alpha1
Liquid phase volume fraction = 0.00275421  Min(alpha1) = 0  Max(alpha1) = 1
[0] Building level 0
[4] Building level 0
[2] Building level 0
[1] Building level 0
[3] Building level 0
[5] Building level 0
[5] Building level 1
[1] Building level 1
[4] Building level 1
[0] Building level 1
Reconstruction on level 1
[3] Building level 1
[2] Building level 1
[2] Building level 2
[3] Building level 2
[2] Building level 3
[3] Building level 3
[3] Building level 4
[2] Building level 4
[3] Building level 5
[2] Building level 5
Creating AMGLevel 
[4] Building level 2
[0] Building level 2
Reconstruction on level 2
[1] Building level 2
[5] Building level 2
[3] Building level 6
[2] Building level 6
[3] Building level 7
[2] Building level 7
[3] Building level 8
[2] Building level 8
[3] Building level 9
[2] Building level 9
[3] Building level 10
[3] Building level 11
[2] Building level 10
[3] Building level 12
[2] Building level 11
[3] Building level 13
[3] Building level 14
[2] Building level 12
[2] Building level 13
[2] Building level 14
Creating AMGLevel 
[0] Building level 3
Reconstruction on level 3
[4] Building level 3
[5] Building level 3
[1] Building level 3
Creating AMGLevel 
[0] Building level 4
Reconstruction on level 4
[4] Building level 4
[5] Building level 4
[1] Building level 4
Creating AMGLevel 
[0] Building level 5
Reconstruction on level 5
[1] Building level 5
[4] Building level 5
[5] Building level 5
Creating AMGLevel 
[0] Building level 6
Reconstruction on level 6
Creating AMGLevel 
[0] Building level 7
Reconstruction on level 7
[5] Building level 6
[4] Building level 6
[1] Building level 6
Creating AMGLevel 
[0] Building level 8
Reconstruction on level 8
Creating AMGLevel 
[0] Building level 9
Reconstruction on level 9
[5] Building level 7
Creating AMGLevel 
[0] Building level 10
Reconstruction on level 10
[4] Building level 7
[1] Building level 7
Creating AMGLevel 
[0] Building level 11
Reconstruction on level 11
Creating AMGLevel 
[0] Building level 12
Reconstruction on level 12
Creating AMGLevel 
[0] Building level 13
Reconstruction on level 13
Creating AMGLevel 
[0] Building level 14
Reconstruction on level 14
Creating AMGLevel 
14 Level construction complete
[5] Building level 8
[4] Building level 8
[1] Building level 8
[5] Building level 9
[4] Building level 9
[5] Building level 10
[5] Building level 11
[5] Building level 12
[4] Building level 10
[1] Building level 9
[5] Building level 13
[5] Building level 14
[4] Building level 11
[4] Building level 12
[1] Building level 10
[4] Building level 13
[4] Building level 14
[1] Building level 11
[1] Building level 12
[1] Building level 13
[1] Building level 14
initial dot_x = 115101
Iter #1 residual = 0.0216802
Iter #2 residual = 0.0156111
Iter #3 residual = 0.00968861
Iter #4 residual = 0.0167875
Iter #5 residual = 0.00717714
Iter #6 residual = 0.0102627
Iter #7 residual = 0.00721477
Iter #8 residual = 0.015345
Iter #9 residual = 0.006987
Iter #10 residual = 0.0059267
Iter #11 residual = 0.00576226
Iter #12 residual = 0.00726159
Iter #13 residual = 0.0041107
Iter #14 residual = 0.00955704
Iter #15 residual = 0.00428568
Iter #16 residual = 0.00428694
Iter #17 residual = 0.00412438
Iter #18 residual = 0.00503485
Iter #19 residual = 0.0040753
Iter #20 residual = 0.00680813
Iter #21 residual = 0.00775988
Iter #22 residual = 0.00302405
GMRES:  Solving for topLevelCorr, Initial residual = 0.854454, Final residual = 0.912675, No Iterations 200
Iter #23 residual = 0.000968172
GMRES:  Solving for topLevelCorr, Initial residual = 0.912549, Final residual = 1.0288, No Iterations 200
Iter #24 residual = 0.001181
Iter #25 residual = 0.00554102
Iter #26 residual = 0.0035865
Iter #27 residual = 0.0067661
Iter #28 residual = 0.00708465
Iter #29 residual = 0.00443645
Iter #30 residual = 0.00219403
Iter #31 residual = 0.00565749
Iter #32 residual = 0.00240662
Iter #33 residual = 0.00402089
Iter #34 residual = 0.00150619
Iter #35 residual = 0.00209153
Iter #36 residual = 0.0018931
Iter #37 residual = 0.00212807
Iter #38 residual = 0.002933
Iter #39 residual = 0.0024457
Iter #40 residual = 0.00196659
Iter #41 residual = 0.00188583
Iter #42 residual = 0.00146435
Iter #43 residual = 0.00150396
Iter #44 residual = 0.00173536
Iter #45 residual = 0.000782563
Iter #46 residual = 0.00102524
Iter #47 residual = 0.00075835
Iter #48 residual = 0.000772465
Iter #49 residual = 0.000555694
Iter #50 residual = 0.00109488
GPU: 50 iters: 10.6344 s: 2.05136 GB/s
GPUAMG:  Solving for pd, Initial residual = 0.00446199, Final residual = 0.00151778, No Iterations 50
[1] Building level 0
[2] Building level 0
[5] Building level 0
[4] Building level 0
[3] Building level 0
[0] Building level 0
[5] Building level 1
[1] Building level 1
[3] Building level 1
[2] Building level 1
[0] Building level 1
[4] Building level 1
[5] Building level 2
[1] Building level 2
[2] Building level 2
[3] Building level 2
[0] Building level 2
[4] Building level 2
[2] Building level 3
[5] Building level 3
[1] Building level 3
[3] Building level 3
[4] Building level 3
[0] Building level 3
[1] Building level 4
[2] Building level 4
[3] Building level 4
[5] Building level 4
[0] Building level 4
[4] Building level 4
[1] Building level 5
[2] Building level 5
[3] Building level 5
[5] Building level 5
[0] Building level 5
[1] Building level 6
[4] Building level 5
[1] Building level 7
[2] Building level 6
[5] Building level 6
[3] Building level 6
[1] Building level 8
[1] Building level 9
[0] Building level 6
[1] Building level 10
[1] Building level 11
[1] Building level 12
[1] Building level 13
[1] Building level 14
[5] Building level 7
[2] Building level 7
[3] Building level 7
[4] Building level 6
[5] Building level 8
[2] Building level 8
[0] Building level 7
[3] Building level 8
[5] Building level 9
[2] Building level 9
[5] Building level 10
[3] Building level 9
[5] Building level 11
[2] Building level 10
[5] Building level 12
[5] Building level 13
[5] Building level 14
[0] Building level 8
[3] Building level 10
[2] Building level 11
[2] Building level 12
[4] Building level 7
[3] Building level 11
[2] Building level 13
[2] Building level 14
[3] Building level 12
[3] Building level 13
[3] Building level 14
[0] Building level 9
[0] Building level 10
[0] Building level 11
[0] Building level 12
[4] Building level 8
[0] Building level 13
[0] Building level 14
14 Level construction complete
[4] Building level 9
[4] Building level 10
[4] Building level 11
[4] Building level 12
[4] Building level 13
[4] Building level 14
initial dot_x = 8.75874e+09
Iter #1 residual = 0.025287
Iter #2 residual = 0.031693
Iter #3 residual = 0.0125615
Iter #4 residual = 0.0149099
Iter #5 residual = 0.00921716
Iter #6 residual = 0.0103654
Iter #7 residual = 0.00797956
Iter #8 residual = 0.0125416
Iter #9 residual = 0.00785477
Iter #10 residual = 0.0184243
Iter #11 residual = 0.0173849
Iter #12 residual = 0.0119092
Iter #13 residual = 0.0115826
Iter #14 residual = 0.0116048
Iter #15 residual = 0.00540007
Iter #16 residual = 0.00778252
Iter #17 residual = 0.00537883
Iter #18 residual = 0.0106613
Iter #19 residual = 0.00512515
Iter #20 residual = 0.0040674
Iter #21 residual = 0.00362502
Iter #22 residual = 0.00393226
Iter #23 residual = 0.00356894
Iter #24 residual = 0.00433769
Iter #25 residual = 0.00378392
Iter #26 residual = 0.00508215
Iter #27 residual = 0.00364072
Iter #28 residual = 0.00685449
Iter #29 residual = 0.00313606
Iter #30 residual = 0.00428976
Iter #31 residual = 0.00288434
Iter #32 residual = 0.00285673
Iter #33 residual = 0.00493424
Iter #34 residual = 0.00302304
Iter #35 residual = 0.00170961
Iter #36 residual = 0.00132159
Iter #37 residual = 0.00204996
Iter #38 residual = 0.00191728
Iter #39 residual = 0.00163912
Iter #40 residual = 0.00127501
Iter #41 residual = 0.00114294
Iter #42 residual = 0.00101789
Iter #43 residual = 0.00194997
Iter #44 residual = 0.000896823
Iter #45 residual = 0.00118323
Iter #46 residual = 0.000826137
Iter #47 residual = 0.000949024
Iter #48 residual = 0.000512798
Iter #49 residual = 0.00150223
Iter #50 residual = 0.000673291
GPU: 50 iters: 10.6132 s: 2.05546 GB/s
GPUAMG:  Solving for pd, Initial residual = 0.00547976, Final residual = 0.000916601, No Iterations 50
[0] Building level 0
[5] Building level 0
[2] Building level 0
[4] Building level 0
[3] Building level 0
[1] Building level 0
[5] Building level 1
[1] Building level 1
[0] Building level 1
[3] Building level 1
[2] Building level 1
[4] Building level 1
[5] Building level 2
[2] Building level 2
[1] Building level 2
[0] Building level 2
[3] Building level 2
[4] Building level 2
[2] Building level 3
[5] Building level 3
[1] Building level 3
[3] Building level 3
[4] Building level 3
[0] Building level 3
[1] Building level 4
[3] Building level 4
[2] Building level 4
[5] Building level 4
[0] Building level 4
[4] Building level 4
[1] Building level 5
[3] Building level 5
[2] Building level 5
[5] Building level 5
[0] Building level 5
[4] Building level 5
[1] Building level 6
[3] Building level 6
[2] Building level 6
[5] Building level 6
[1] Building level 7
[0] Building level 6
[1] Building level 8
[1] Building level 9
[4] Building level 6
[3] Building level 7
[2] Building level 7
[1] Building level 10
[5] Building level 7
[0] Building level 7
[1] Building level 11
[1] Building level 12
[1] Building level 13
[1] Building level 14
[3] Building level 8
[2] Building level 8
[5] Building level 8
[0] Building level 8
[3] Building level 9
[2] Building level 9
[4] Building level 7
[5] Building level 9
[0] Building level 9
[3] Building level 10
[5] Building level 10
[0] Building level 10
[2] Building level 10
[5] Building level 11
[3] Building level 11
[0] Building level 11
[5] Building level 12
[2] Building level 11
[5] Building level 13
[3] Building level 12
[0] Building level 12
[5] Building level 14
[3] Building level 13
[0] Building level 13
[2] Building level 12
[0] Building level 14
[3] Building level 14
14 Level construction complete
[2] Building level 13
[2] Building level 14
[4] Building level 8
[4] Building level 9
[4] Building level 10
[4] Building level 11
[4] Building level 12
[4] Building level 13
[4] Building level 14
initial dot_x = 1.23366e+08
Iter #1 residual = 0.0259422
Iter #2 residual = 0.024512
Iter #3 residual = 0.0219718
Iter #4 residual = 0.0134157
Iter #5 residual = 0.0100508
Iter #6 residual = 0.0120449
Iter #7 residual = 0.0164162
Iter #8 residual = 0.0072685
Iter #9 residual = 0.0116051
Iter #10 residual = 0.011781
Iter #11 residual = 0.00797621
Iter #12 residual = 0.00447249
Iter #13 residual = 0.00621028
Iter #14 residual = 0.00471173
Iter #15 residual = 0.00642072
Iter #16 residual = 0.00345997
Iter #17 residual = 0.00622371
Iter #18 residual = 0.00314787
Iter #19 residual = 0.00552924
Iter #20 residual = 0.00628361
Iter #21 residual = 0.00458199
Iter #22 residual = 0.00444663
Iter #23 residual = 0.00269051
Iter #24 residual = 0.00163723
Iter #25 residual = 0.00413825
Iter #26 residual = 0.00191003
Iter #27 residual = 0.00144134
Iter #28 residual = 0.00147519
Iter #29 residual = 0.00202408
Iter #30 residual = 0.00172688
Iter #31 residual = 0.00262376
Iter #32 residual = 0.00120028
Iter #33 residual = 0.0012303
Iter #34 residual = 0.000951558
Iter #35 residual = 0.00177537
Iter #36 residual = 0.0012783
Iter #37 residual = 0.00205346
Iter #38 residual = 0.000919392
Iter #39 residual = 0.00143832
Iter #40 residual = 0.00141231
Iter #41 residual = 0.00116708
Iter #42 residual = 0.00060971
Iter #43 residual = 0.000773083
Iter #44 residual = 0.000451874
Iter #45 residual = 0.000775025
Iter #46 residual = 0.000419623
Iter #47 residual = 0.000617026
Iter #48 residual = 0.000592591
Iter #49 residual = 0.000490819
Iter #50 residual = 0.000213969
GPU: 50 iters: 10.6329 s: 2.05166 GB/s
GPUAMG:  Solving for pd, Initial residual = 0.00466301, Final residual = 0.000517069, No Iterations 50
time step continuity errors : sum local = 6.49943e-08, global = -4.12182e-08, cumulative = -4.12182e-08
ExecutionTime = 138.55 s  ClockTime = 154 s

Courant Number mean: 1.34251e-05 max: 0.217098 velocity magnitude: 1.69608
Time = 0.003

MULES: Solving for alpha1
Liquid phase volume fraction = 0.00275424  Min(alpha1) = -7.64406e-31  Max(alpha1) = 1
MULES: Solving for alpha1
Liquid phase volume fraction = 0.00275426  Min(alpha1) = -7.93507e-30  Max(alpha1) = 1
[0] Building level 0
[4] Building level 0
[3] Building level 0
[1] Building level 0
[5] Building level 0
[2] Building level 0
[5] Building level 1
[1] Building level 1
[4] Building level 1
[2] Building level 1
[3] Building level 1
[0] Building level 1
Reconstruction on level 1
[2] Building level 2
[3] Building level 2
[4] Building level 2
[2] Building level 3
[3] Building level 3
[2] Building level 4
[3] Building level 4
[4] Building level 3
[2] Building level 5
[3] Building level 5
Creating AMGLevel 
[5] Building level 2
[0] Building level 2
Reconstruction on level 2
[1] Building level 2
[4] Building level 4
[2] Building level 6
[3] Building level 6
[2] Building level 7
[3] Building level 7
[2] Building level 8
[3] Building level 8
[2] Building level 9
[3] Building level 9
[2] Building level 10
[2] Building level 11
[2] Building level 12
[3] Building level 10
[2] Building level 13
[4] Building level 5
[3] Building level 11
[2] Building level 14
[3] Building level 12
[3] Building level 13
[3] Building level 14
Creating AMGLevel 
[0] Building level 3
Reconstruction on level 3
[5] Building level 3
[4] Building level 6
[1] Building level 3
[4] Building level 7
[4] Building level 8
[4] Building level 9
[4] Building level 10
[4] Building level 11
[4] Building level 12
[4] Building level 13
[4] Building level 14
Creating AMGLevel 
[0] Building level 4
Reconstruction on level 4
[5] Building level 4
[1] Building level 4
Creating AMGLevel 
[0] Building level 5
Reconstruction on level 5
[5] Building level 5
[1] Building level 5
Creating AMGLevel 
[0] Building level 6
Reconstruction on level 6
[5] Building level 6
Creating AMGLevel 
[0] Building level 7
Reconstruction on level 7
[5] Building level 7
[1] Building level 6
Creating AMGLevel 
[0] Building level 8
Reconstruction on level 8
[5] Building level 8
Creating AMGLevel 
[0] Building level 9
Reconstruction on level 9
Creating AMGLevel 
[0] Building level 10
Reconstruction on level 10
[5] Building level 9
Creating AMGLevel 
[0] Building level 11
Reconstruction on level 11
Creating AMGLevel 
[0] Building level 12
Reconstruction on level 12
[1] Building level 7
[5] Building level 10
Creating AMGLevel 
[0] Building level 13
Reconstruction on level 13
Creating AMGLevel 
[0] Building level 14
Reconstruction on level 14
Creating AMGLevel 
14 Level construction complete
[5] Building level 11
[5] Building level 12
[5] Building level 13
[5] Building level 14
[1] Building level 8
[1] Building level 9
[1] Building level 10
[1] Building level 11
[1] Building level 12
[1] Building level 13
[1] Building level 14
initial dot_x = 9.23565e+09
Iter #1 residual = 0.0315919
Iter #2 residual = 0.0258976
Iter #3 residual = 0.022284
Iter #4 residual = 0.0211065
Iter #5 residual = 0.0293608
Iter #6 residual = 0.0193077
Iter #7 residual = 0.0481025
Iter #8 residual = 0.0519844
Iter #9 residual = 0.024839
Iter #10 residual = 0.0258137
Iter #11 residual = 0.0171297
Iter #12 residual = 0.0102682
Iter #13 residual = 0.00551206
Iter #14 residual = 0.0127443
Iter #15 residual = 0.0114495
Iter #16 residual = 0.00750367
Iter #17 residual = 0.00934643
Iter #18 residual = 0.00471335
Iter #19 residual = 0.0181506
Iter #20 residual = 0.0134766
Iter #21 residual = 0.00425139
Iter #22 residual = 0.00680357
Iter #23 residual = 0.0051788
Iter #24 residual = 0.0109933
Iter #25 residual = 0.0069165
Iter #26 residual = 0.00487409
Iter #27 residual = 0.00406808
Iter #28 residual = 0.00413409
Iter #29 residual = 0.00285713
Iter #30 residual = 0.00408847
Iter #31 residual = 0.00284424
Iter #32 residual = 0.00475456
Iter #33 residual = 0.00955794
Iter #34 residual = 0.005227
Iter #35 residual = 0.00381051
Iter #36 residual = 0.00293698
Iter #37 residual = 0.00269114
Iter #38 residual = 0.00212949
Iter #39 residual = 0.00707271
Iter #40 residual = 0.00413896
Iter #41 residual = 0.00308398
Iter #42 residual = 0.0023925
Iter #43 residual = 0.00590716
Iter #44 residual = 0.0039266
Iter #45 residual = 0.00211012
Iter #46 residual = 0.0018688
Iter #47 residual = 0.00162741
Iter #48 residual = 0.000954264
Iter #49 residual = 0.000806038
Iter #50 residual = 0.00069312
GPU: 50 iters: 10.5869 s: 2.06057 GB/s
GPUAMG:  Solving for pd, Initial residual = 0.00850333, Final residual = 0.000632402, No Iterations 50
[0] Building level 0
[2] Building level 0
[3] Building level 0
[1] Building level 0
[4] Building level 0
[5] Building level 0
[5] Building level 1
[1] Building level 1
[3] Building level 1
[4] Building level 1
[2] Building level 1
[0] Building level 1
[5] Building level 2
[0] Building level 2
[1] Building level 2
[2] Building level 2
[4] Building level 2
[3] Building level 2
[5] Building level 3
[1] Building level 3
[2] Building level 3
[0] Building level 3
[3] Building level 3
[4] Building level 3
[1] Building level 4
[2] Building level 4
[0] Building level 4
[5] Building level 4
[3] Building level 4
[4] Building level 4
[1] Building level 5
[2] Building level 5
[5] Building level 5
[0] Building level 5
[4] Building level 5
[3] Building level 5
[1] Building level 6
[2] Building level 6
[5] Building level 6
[0] Building level 6
[1] Building level 7
[2] Building level 7
[4] Building level 6
[5] Building level 7
[3] Building level 6
[1] Building level 8
[2] Building level 8
[1] Building level 9
[5] Building level 8
[0] Building level 7
[1] Building level 10
[1] Building level 11
[2] Building level 9
[1] Building level 12
[1] Building level 13
[1] Building level 14
[5] Building level 9
[2] Building level 10
[2] Building level 11
[5] Building level 10
[4] Building level 7
[2] Building level 12
[5] Building level 11
[2] Building level 13
[2] Building level 14
[5] Building level 12
[5] Building level 13
[5] Building level 14
[0] Building level 8
[3] Building level 7
[0] Building level 9
[4] Building level 8
[0] Building level 10
[0] Building level 11
[0] Building level 12
[3] Building level 8
[0] Building level 13
[4] Building level 9
[0] Building level 14
14 Level construction complete
[4] Building level 10
[4] Building level 11
[3] Building level 9
[4] Building level 12
[4] Building level 13
[4] Building level 14
[3] Building level 10
[3] Building level 11
[3] Building level 12
[3] Building level 13
[3] Building level 14
initial dot_x = 2.64093e+09
Iter #1 residual = 0.0126883
Iter #2 residual = 0.0107299
Iter #3 residual = 0.00819425
Iter #4 residual = 0.00665993
Iter #5 residual = 0.00938055
Iter #6 residual = 0.00652767
Iter #7 residual = 0.0214221
Iter #8 residual = 0.0119658
Iter #9 residual = 0.00845148
Iter #10 residual = 0.00445428
GMRES:  Solving for topLevelCorr, Initial residual = 0.842857, Final residual = 0.848339, No Iterations 200
Iter #11 residual = 0.00128287
GMRES:  Solving for topLevelCorr, Initial residual = 0.933251, Final residual = 1.23413, No Iterations 200
Iter #12 residual = 0.00196164
Iter #13 residual = 0.0111573
Iter #14 residual = 0.00788228
Iter #15 residual = 0.0177277
Iter #16 residual = 0.0237817
Iter #17 residual = 0.00945144
Iter #18 residual = 0.0105616
Iter #19 residual = 0.00783785
Iter #20 residual = 0.00428031
Iter #21 residual = 0.00364544
Iter #22 residual = 0.00376234
Iter #23 residual = 0.00364575
Iter #24 residual = 0.00348108
Iter #25 residual = 0.0043551
Iter #26 residual = 0.0030865
Iter #27 residual = 0.00502292
Iter #28 residual = 0.00361602
Iter #29 residual = 0.00138887
Iter #30 residual = 0.0055761
Iter #31 residual = 0.00405015
Iter #32 residual = 0.0131262
Iter #33 residual = 0.00661133
Iter #34 residual = 0.0118119
Iter #35 residual = 0.00945662
Iter #36 residual = 0.00294083
Iter #37 residual = 0.00126524
Iter #38 residual = 0.00210303
Iter #39 residual = 0.00116567
GMRES:  Solving for topLevelCorr, Initial residual = 0.878372, Final residual = 0.977233, No Iterations 200
Iter #40 residual = 0.00045868
GMRES:  Solving for topLevelCorr, Initial residual = 0.908739, Final residual = 1.12424, No Iterations 200
Iter #41 residual = 0.000570066
Iter #42 residual = 0.00212522
Iter #43 residual = 0.00358249
Iter #44 residual = 0.00190396
Iter #45 residual = 0.00429382
Iter #46 residual = 0.00555931
Iter #47 residual = 0.002268
Iter #48 residual = 0.00248584
Iter #49 residual = 0.00182119
Iter #50 residual = 0.00269607
GPU: 50 iters: 10.5798 s: 2.06195 GB/s
GPUAMG:  Solving for pd, Initial residual = 0.00556426, Final residual = 0.00289796, No Iterations 50
[2] Building level 0
[5] Building level 0
[1] Building level 0
[0] Building level 0
[4] Building level 0
[3] Building level 0
[5] Building level 1
[1] Building level 1
[0] Building level 1
[4] Building level 1
[3] Building level 1
[2] Building level 1
[5] Building level 2
[0] Building level 2
[2] Building level 2
[1] Building level 2
[3] Building level 2
[4] Building level 2
[2] Building level 3
[5] Building level 3
[1] Building level 3
[3] Building level 3
[0] Building level 3
[4] Building level 3
[2] Building level 4
[0] Building level 4
[1] Building level 4
[5] Building level 4
[3] Building level 4
[4] Building level 4
[2] Building level 5
[0] Building level 5
[1] Building level 5
[5] Building level 5
[3] Building level 5
[2] Building level 6
[0] Building level 6
[1] Building level 6
[4] Building level 5
[2] Building level 7
[5] Building level 6
[0] Building level 7
[1] Building level 7
[2] Building level 8
[3] Building level 6
[2] Building level 9
[0] Building level 8
[2] Building level 10
[1] Building level 8
[2] Building level 11
[2] Building level 12
[2] Building level 13
[2] Building level 14
[0] Building level 9
[5] Building level 7
[1] Building level 9
[0] Building level 10
[0] Building level 11
[0] Building level 12
[0] Building level 13
[1] Building level 10
[0] Building level 14
14 Level construction complete
[1] Building level 11
[1] Building level 12
[4] Building level 6
[1] Building level 13
[1] Building level 14
[3] Building level 7
[5] Building level 8
[5] Building level 9
[3] Building level 8
[5] Building level 10
[5] Building level 11
[5] Building level 12
[5] Building level 13
[3] Building level 9
[5] Building level 14
[3] Building level 10
[4] Building level 7
[3] Building level 11
[3] Building level 12
[3] Building level 13
[3] Building level 14
[4] Building level 8
[4] Building level 9
[4] Building level 10
[4] Building level 11
[4] Building level 12
[4] Building level 13
[4] Building level 14
initial dot_x = 8.08528e+06
Iter #1 residual = 0.0102486
Iter #2 residual = 0.00849567
Iter #3 residual = 0.0215976
Iter #4 residual = 0.0120989
Iter #5 residual = 0.00738252
Iter #6 residual = 0.015219
Iter #7 residual = 0.00917495
Iter #8 residual = 0.00672754
Iter #9 residual = 0.00391281
Iter #10 residual = 0.00739891
Iter #11 residual = 0.00445126
Iter #12 residual = 0.00913503
Iter #13 residual = 0.00780862
Iter #14 residual = 0.00296249
Iter #15 residual = 0.00247816
Iter #16 residual = 0.00328494
Iter #17 residual = 0.00197113
Iter #18 residual = 0.00773016
Iter #19 residual = 0.00399958
Iter #20 residual = 0.00455694
Iter #21 residual = 0.00359798
Iter #22 residual = 0.00272341
Iter #23 residual = 0.00174022
Iter #24 residual = 0.00136329
Iter #25 residual = 0.00230118
Iter #26 residual = 0.0014202
Iter #27 residual = 0.0017072
Iter #28 residual = 0.00133857
Iter #29 residual = 0.00119858
Iter #30 residual = 0.00185055
Iter #31 residual = 0.0012814
Iter #32 residual = 0.00552018
Iter #33 residual = 0.00341682
Iter #34 residual = 0.00161468
Iter #35 residual = 0.00155126
Iter #36 residual = 0.00125701
Iter #37 residual = 0.00208542
Iter #38 residual = 0.00138177
Iter #39 residual = 0.00100287
Iter #40 residual = 0.000775621
Iter #41 residual = 0.00120286
Iter #42 residual = 0.000814947
Iter #43 residual = 0.00126726
Iter #44 residual = 0.000726234
Iter #45 residual = 0.00157276
Iter #46 residual = 0.00105361
Iter #47 residual = 0.00360833
Iter #48 residual = 0.00305953
Iter #49 residual = 0.000783512
Iter #50 residual = 0.000638736
GPU: 50 iters: 10.577 s: 2.06251 GB/s
GPUAMG:  Solving for pd, Initial residual = 0.00811389, Final residual = 0.000411752, No Iterations 50
time step continuity errors : sum local = 4.30599e-08, global = -2.23289e-08, cumulative = -6.35471e-08
ExecutionTime = 207.01 s  ClockTime = 223 s

Courant Number mean: 1.64778e-05 max: 0.138379 velocity magnitude: 1.08109
Time = 0.004

MULES: Solving for alpha1
Liquid phase volume fraction = 0.00275427  Min(alpha1) = -3.69106e-31  Max(alpha1) = 1
MULES: Solving for alpha1
Liquid phase volume fraction = 0.00275428  Min(alpha1) = -7.58363e-33  Max(alpha1) = 1
[2] Building level 0
[5] Building level 0
[4] Building level 0
[3] Building level 0
[1] Building level 0
[0] Building level 0
[5] Building level 1
[1] Building level 1
[4] Building level 1
[0] Building level 1
Reconstruction on level 1
[3] Building level 1
[2] Building level 1
[2] Building level 2
[3] Building level 2
[4] Building level 2
[2] Building level 3
[3] Building level 3
[2] Building level 4
[3] Building level 4
[4] Building level 3
[2] Building level 5
[3] Building level 5
[5] Building level 2
Creating AMGLevel 
[0] Building level 2
Reconstruction on level 2
[1] Building level 2
[4] Building level 4
[2] Building level 6
[3] Building level 6
[2] Building level 7
[3] Building level 7
[2] Building level 8
[3] Building level 8
[2] Building level 9
[3] Building level 9
[2] Building level 10
[2] Building level 11
[3] Building level 10
[4] Building level 5
[2] Building level 12
[2] Building level 13
[3] Building level 11
[2] Building level 14
[3] Building level 12
[3] Building level 13
[3] Building level 14
[5] Building level 3
Creating AMGLevel 
[0] Building level 3
Reconstruction on level 3
[1] Building level 3
[4] Building level 6
[4] Building level 7
[4] Building level 8
[4] Building level 9
[4] Building level 10
[4] Building level 11
[4] Building level 12
[4] Building level 13
[4] Building level 14
[5] Building level 4
Creating AMGLevel 
[0] Building level 4
Reconstruction on level 4
[1] Building level 4
[5] Building level 5
Creating AMGLevel 
[0] Building level 5
Reconstruction on level 5
[1] Building level 5
[5] Building level 6
Creating AMGLevel 
[0] Building level 6
Reconstruction on level 6
[5] Building level 7
Creating AMGLevel 
[0] Building level 7
Reconstruction on level 7
[1] Building level 6
[5] Building level 8
Creating AMGLevel 
[0] Building level 8
Reconstruction on level 8
[5] Building level 9
[5] Building level 10
Creating AMGLevel 
[0] Building level 9
Reconstruction on level 9
[5] Building level 11
[5] Building level 12
[5] Building level 13
Creating AMGLevel 
[0] Building level 10
Reconstruction on level 10
[5] Building level 14
Creating AMGLevel 
[0] Building level 11
Reconstruction on level 11
Creating AMGLevel 
[0] Building level 12
Reconstruction on level 12
[1] Building level 7
Creating AMGLevel 
[0] Building level 13
Reconstruction on level 13
Creating AMGLevel 
[0] Building level 14
Reconstruction on level 14
Creating AMGLevel 
14 Level construction complete
[1] Building level 8
[1] Building level 9
[1] Building level 10
[1] Building level 11
[1] Building level 12
[1] Building level 13
[1] Building level 14
initial dot_x = 3.00083e+09
Iter #1 residual = 0.0401577
Iter #2 residual = 0.0252082
Iter #3 residual = 0.0414143
Iter #4 residual = 0.0251947
Iter #5 residual = 0.0170053
Iter #6 residual = 0.0318217
Iter #7 residual = 0.0242643
Iter #8 residual = 0.029024
Iter #9 residual = 0.0168119
Iter #10 residual = 0.0237036
Iter #11 residual = 0.0148484
Iter #12 residual = 0.00813192
Iter #13 residual = 0.00363608
Iter #14 residual = 0.0089005
Iter #15 residual = 0.00457286
Iter #16 residual = 0.00486874
Iter #17 residual = 0.00362057
Iter #18 residual = 0.00259137
Iter #19 residual = 0.00413191
Iter #20 residual = 0.00231614
Iter #21 residual = 0.00867487
Iter #22 residual = 0.00538424
Iter #23 residual = 0.0028638
Iter #24 residual = 0.00212821
Iter #25 residual = 0.00284081
Iter #26 residual = 0.00233632
Iter #27 residual = 0.00232035
Iter #28 residual = 0.0022875
Iter #29 residual = 0.00278211
Iter #30 residual = 0.00702792
Iter #31 residual = 0.00397672
Iter #32 residual = 0.00408851
Iter #33 residual = 0.0036923
Iter #34 residual = 0.00291985
Iter #35 residual = 0.0022286
Iter #36 residual = 0.00155342
Iter #37 residual = 0.00126921
Iter #38 residual = 0.00174098
Iter #39 residual = 0.00145136
Iter #40 residual = 0.00120308
Iter #41 residual = 0.00199497
Iter #42 residual = 0.00136338
Iter #43 residual = 0.000519852
Iter #44 residual = 0.00154047
Iter #45 residual = 0.00128999
Iter #46 residual = 0.000722236
Iter #47 residual = 0.00105826
Iter #48 residual = 0.000980575
Iter #49 residual = 0.000989011
Iter #50 residual = 0.00109858
GPU: 50 iters: 10.6693 s: 2.04465 GB/s
GPUAMG:  Solving for pd, Initial residual = 0.0101737, Final residual = 0.00084799, No Iterations 50
[0] Building level 0
[5] Building level 0
[2] Building level 0
[1] Building level 0
[4] Building level 0
[3] Building level 0
[5] Building level 1
[1] Building level 1
[0] Building level 1
[4] Building level 1
[3] Building level 1
[2] Building level 1
[5] Building level 2
[2] Building level 2
[0] Building level 2
[4] Building level 2
[3] Building level 2
[1] Building level 2
[5] Building level 3
[2] Building level 3
[0] Building level 3
[3] Building level 3
[4] Building level 3
[1] Building level 3
[2] Building level 4
[5] Building level 4
[0] Building level 4
[3] Building level 4
[1] Building level 4
[4] Building level 4
[2] Building level 5
[5] Building level 5
[0] Building level 5
[2] Building level 6
[3] Building level 5
[1] Building level 5
[4] Building level 5
[5] Building level 6
[0] Building level 6
[2] Building level 7
[5] Building level 7
[2] Building level 8
[0] Building level 7
[5] Building level 8
[2] Building level 9
[3] Building level 6
[4] Building level 6
[1] Building level 6
[2] Building level 10
[5] Building level 9
[2] Building level 11
[2] Building level 12
[2] Building level 13
[5] Building level 10
[2] Building level 14
[5] Building level 11
[0] Building level 8
[5] Building level 12
[5] Building level 13
[5] Building level 14
[0] Building level 9
[0] Building level 10
[0] Building level 11
[0] Building level 12
[0] Building level 13
[0] Building level 14
14 Level construction complete
[3] Building level 7
[4] Building level 7
[1] Building level 7
[3] Building level 8
[4] Building level 8
[1] Building level 8
[3] Building level 9
[4] Building level 9
[1] Building level 9
[3] Building level 10
[4] Building level 10
[3] Building level 11
[4] Building level 11
[3] Building level 12
[4] Building level 12
[3] Building level 13
[1] Building level 10
[3] Building level 14
[4] Building level 13
[4] Building level 14
[1] Building level 11
[1] Building level 12
[1] Building level 13
[1] Building level 14
initial dot_x = 1.88674e+09
Iter #1 residual = 0.00687705
Iter #2 residual = 0.00802826
Iter #3 residual = 0.00470964
Iter #4 residual = 0.00745442
Iter #5 residual = 0.00650637
Iter #6 residual = 0.00363558
Iter #7 residual = 0.00348612
Iter #8 residual = 0.00212432
Iter #9 residual = 0.00160281
Iter #10 residual = 0.00112043
Iter #11 residual = 0.00114688
Iter #12 residual = 0.0011218
Iter #13 residual = 0.00176506
Iter #14 residual = 0.00425788
Iter #15 residual = 0.00228379
Iter #16 residual = 0.0016459
Iter #17 residual = 0.00181111
Iter #18 residual = 0.00279436
Iter #19 residual = 0.00192952
Iter #20 residual = 0.0024493
Iter #21 residual = 0.00170263
Iter #22 residual = 0.00364912
Iter #23 residual = 0.0021184
GMRES:  Solving for topLevelCorr, Initial residual = 0.814046, Final residual = 0.827459, No Iterations 200
Iter #24 residual = 0.000585757
GMRES:  Solving for topLevelCorr, Initial residual = 0.908779, Final residual = 1.13429, No Iterations 200
Iter #25 residual = 0.000541185
Iter #26 residual = 0.00583676
Iter #27 residual = 0.00390695
Iter #28 residual = 0.0072372
Iter #29 residual = 0.004926
Iter #30 residual = 0.00186838
Iter #31 residual = 0.00190821
Iter #32 residual = 0.00124225
Iter #33 residual = 0.00137796
Iter #34 residual = 0.00105053
Iter #35 residual = 0.00244
Iter #36 residual = 0.00150271
Iter #37 residual = 0.00148872
Iter #38 residual = 0.00163504
Iter #39 residual = 0.00091782
Iter #40 residual = 0.000619983
Iter #41 residual = 0.000832372
Iter #42 residual = 0.00123823
Iter #43 residual = 0.00334911
Iter #44 residual = 0.00227532
Iter #45 residual = 0.0012081
Iter #46 residual = 0.000774405
Iter #47 residual = 0.000558884
Iter #48 residual = 0.000817135
Iter #49 residual = 0.000572897
Iter #50 residual = 0.00148572
GPU: 50 iters: 10.631 s: 2.05201 GB/s
GPUAMG:  Solving for pd, Initial residual = 0.00776631, Final residual = 0.000941074, No Iterations 50
[0] Building level 0
[5] Building level 0
[2] Building level 0
[1] Building level 0
[3] Building level 0
[4] Building level 0
[5] Building level 1
[1] Building level 1
[4] Building level 1
[0] Building level 1
[3] Building level 1
[2] Building level 1
[5] Building level 2
[2] Building level 2
[1] Building level 2
[0] Building level 2
[3] Building level 2
[4] Building level 2
[2] Building level 3
[5] Building level 3
[3] Building level 3
[0] Building level 3
[4] Building level 3
[1] Building level 3
[2] Building level 4
[5] Building level 4
[0] Building level 4
[1] Building level 4
[3] Building level 4
[4] Building level 4
[2] Building level 5
[5] Building level 5
[0] Building level 5
[1] Building level 5
[2] Building level 6
[3] Building level 5
[4] Building level 5
[2] Building level 7
[5] Building level 6
[0] Building level 6
[2] Building level 8
[2] Building level 9
[1] Building level 6
[3] Building level 6
[2] Building level 10
[2] Building level 11
[2] Building level 12
[2] Building level 13
[2] Building level 14
[5] Building level 7
[0] Building level 7
[4] Building level 6
[0] Building level 8
[5] Building level 8
[1] Building level 7
[3] Building level 7
[0] Building level 9
[5] Building level 9
[0] Building level 10
[5] Building level 10
[0] Building level 11
[0] Building level 12
[5] Building level 11
[0] Building level 13
[0] Building level 14
14 Level construction complete
[5] Building level 12
[5] Building level 13
[1] Building level 8
[5] Building level 14
[3] Building level 8
[1] Building level 9
[3] Building level 9
[4] Building level 7
[1] Building level 10
[3] Building level 10
[1] Building level 11
[3] Building level 11
[1] Building level 12
[1] Building level 13
[3] Building level 12
[1] Building level 14
[3] Building level 13
[3] Building level 14
[4] Building level 8
[4] Building level 9
[4] Building level 10
[4] Building level 11
[4] Building level 12
[4] Building level 13
[4] Building level 14
initial dot_x = 6.31199e+08
Iter #1 residual = 0.0106109
Iter #2 residual = 0.00840158
Iter #3 residual = 0.00592567
Iter #4 residual = 0.00485977
Iter #5 residual = 0.0108388
Iter #6 residual = 0.00942235
Iter #7 residual = 0.00418016
Iter #8 residual = 0.0102745
Iter #9 residual = 0.00642558
Iter #10 residual = 0.00716809
Iter #11 residual = 0.00445814
Iter #12 residual = 0.0015051
Iter #13 residual = 0.00162704
Iter #14 residual = 0.00204368
Iter #15 residual = 0.00134192
Iter #16 residual = 0.00149312
Iter #17 residual = 0.00108168
Iter #18 residual = 0.00269585
Iter #19 residual = 0.00197981
Iter #20 residual = 0.0032163
Iter #21 residual = 0.00150927
Iter #22 residual = 0.00134414
Iter #23 residual = 0.0012984
Iter #24 residual = 0.000855621
Iter #25 residual = 0.00190265
Iter #26 residual = 0.00117375
Iter #27 residual = 0.00105991
Iter #28 residual = 0.000847451
Iter #29 residual = 0.000529107
Iter #30 residual = 0.000542136
Iter #31 residual = 0.00100718
Iter #32 residual = 0.000660901
Iter #33 residual = 0.000509186
Iter #34 residual = 0.000349994
Iter #35 residual = 0.000338718
Iter #36 residual = 0.000265222
Iter #37 residual = 0.000255208
Iter #38 residual = 0.000272957
Iter #39 residual = 0.000207641
Iter #40 residual = 0.000235492
Iter #41 residual = 0.000251566
Iter #42 residual = 0.000171216
Iter #43 residual = 0.000171117
Iter #44 residual = 0.000354976
Iter #45 residual = 0.000195335
Iter #46 residual = 0.000221313
Iter #47 residual = 0.000391346
Iter #48 residual = 0.000265759
Iter #49 residual = 0.000483958
Iter #50 residual = 0.000284833
GPU: 50 iters: 10.6743 s: 2.0437 GB/s
GPUAMG:  Solving for pd, Initial residual = 0.00733194, Final residual = 0.000562462, No Iterations 50
time step continuity errors : sum local = 3.61823e-08, global = -1.05229e-08, cumulative = -7.407e-08
ExecutionTime = 275.95 s  ClockTime = 292 s

Courant Number mean: 2.01766e-05 max: 0.0710358 velocity magnitude: 0.554967
Time = 0.005

MULES: Solving for alpha1
Liquid phase volume fraction = 0.00275429  Min(alpha1) = -1.47693e-29  Max(alpha1) = 1
MULES: Solving for alpha1
Liquid phase volume fraction = 0.00275429  Min(alpha1) = -1.69608e-32  Max(alpha1) = 1
[1] Building level 0
[0] Building level 0
[4] Building level 0
[3] Building level 0
[2] Building level 0
[5] Building level 0
[5] Building level 1
[1] Building level 1
[4] Building level 1
[3] Building level 1
[0] Building level 1
Reconstruction on level 1
[2] Building level 1
[2] Building level 2
[4] Building level 2
[3] Building level 2
[2] Building level 3
[3] Building level 3
[2] Building level 4
[3] Building level 4
[4] Building level 3
[3] Building level 5
[2] Building level 5
Creating AMGLevel 
[0] Building level 2
Reconstruction on level 2
[5] Building level 2
[1] Building level 2
[4] Building level 4
[3] Building level 6
[2] Building level 6
[3] Building level 7
[2] Building level 7
[3] Building level 8
[2] Building level 8
[3] Building level 9
[2] Building level 9
[4] Building level 5
[3] Building level 10
[2] Building level 10
[3] Building level 11
[2] Building level 11
[3] Building level 12
[3] Building level 13
[2] Building level 12
[3] Building level 14
[2] Building level 13
[2] Building level 14
Creating AMGLevel 
[0] Building level 3
Reconstruction on level 3
[5] Building level 3
[4] Building level 6
[1] Building level 3
[4] Building level 7
[4] Building level 8
[4] Building level 9
[4] Building level 10
[4] Building level 11
[4] Building level 12
[4] Building level 13
[4] Building level 14
Creating AMGLevel 
[0] Building level 4
Reconstruction on level 4
[5] Building level 4
[1] Building level 4
Creating AMGLevel 
[0] Building level 5
Reconstruction on level 5
[5] Building level 5
[1] Building level 5
Creating AMGLevel 
[0] Building level 6
Reconstruction on level 6
[5] Building level 6
Creating AMGLevel 
[0] Building level 7
Reconstruction on level 7
[5] Building level 7
[1] Building level 6
Creating AMGLevel 
[0] Building level 8
Reconstruction on level 8
[5] Building level 8
Creating AMGLevel 
[0] Building level 9
Reconstruction on level 9
[5] Building level 9
Creating AMGLevel 
[0] Building level 10
Reconstruction on level 10
[5] Building level 10
Creating AMGLevel 
[0] Building level 11
Reconstruction on level 11
[5] Building level 11
Creating AMGLevel 
[0] Building level 12
Reconstruction on level 12
Creating AMGLevel 
[0] Building level 13
Reconstruction on level 13
[5] Building level 12
Creating AMGLevel 
[0] Building level 14
Reconstruction on level 14
[5] Building level 13
Creating AMGLevel 
14 Level construction complete
[5] Building level 14
[1] Building level 7
[1] Building level 8
[1] Building level 9
[1] Building level 10
[1] Building level 11
[1] Building level 12
[1] Building level 13
[1] Building level 14
initial dot_x = 4.02949e+09
Iter #1 residual = 0.0247625
Iter #2 residual = 0.0598439
Iter #3 residual = 0.0385875
Iter #4 residual = 0.023855
Iter #5 residual = 0.0103799
Iter #6 residual = 0.00867316
Iter #7 residual = 0.0072801
Iter #8 residual = 0.0111008
Iter #9 residual = 0.0254287
Iter #10 residual = 0.0127055
Iter #11 residual = 0.0106013
Iter #12 residual = 0.0141338
Iter #13 residual = 0.0084639
Iter #14 residual = 0.0161248
Iter #15 residual = 0.0140549
Iter #16 residual = 0.0160323
Iter #17 residual = 0.0085479
Iter #18 residual = 0.00531625
Iter #19 residual = 0.00254074
Iter #20 residual = 0.00397899
Iter #21 residual = 0.00225524
Iter #22 residual = 0.0027851
Iter #23 residual = 0.00256832
Iter #24 residual = 0.00133296
Iter #25 residual = 0.00248282
Iter #26 residual = 0.00147269
Iter #27 residual = 0.00292973
Iter #28 residual = 0.00269471
Iter #29 residual = 0.000875481
Iter #30 residual = 0.00103317
Iter #31 residual = 0.0010741
Iter #32 residual = 0.000790401
Iter #33 residual = 0.00425034
Iter #34 residual = 0.0027
Iter #35 residual = 0.00154724
Iter #36 residual = 0.00175446
Iter #37 residual = 0.00103949
Iter #38 residual = 0.00146672
Iter #39 residual = 0.00137766
Iter #40 residual = 0.00112753
Iter #41 residual = 0.0010639
Iter #42 residual = 0.000484325
Iter #43 residual = 0.000835226
Iter #44 residual = 0.000678795
Iter #45 residual = 0.000683542
Iter #46 residual = 0.000507438
Iter #47 residual = 0.000691075
Iter #48 residual = 0.000578208
Iter #49 residual = 0.00186521
Iter #50 residual = 0.0011992
GPU: 50 iters: 10.6477 s: 2.04881 GB/s
GPUAMG:  Solving for pd, Initial residual = 0.00897101, Final residual = 0.000743046, No Iterations 50
[4] Building level 0
[3] Building level 0
[5] Building level 0
[2] Building level 0
[0] Building level 0
[1] Building level 0
[5] Building level 1
[1] Building level 1
[0] Building level 1
[4] Building level 1
[3] Building level 1
[2] Building level 1
[1] Building level 2
[2] Building level 2
[5] Building level 2
[0] Building level 2
[3] Building level 2
[4] Building level 2
[1] Building level 3
[2] Building level 3
[3] Building level 3
[0] Building level 3
[4] Building level 3
[5] Building level 3
[1] Building level 4
[3] Building level 4
[2] Building level 4
[4] Building level 4
[0] Building level 4
[5] Building level 4
[1] Building level 5
[3] Building level 5
[2] Building level 5
[0] Building level 5
[4] Building level 5
[1] Building level 6
[5] Building level 5
[3] Building level 6
[2] Building level 6
[1] Building level 7
[3] Building level 7
[4] Building level 6
[0] Building level 6
[2] Building level 7
[1] Building level 8
[1] Building level 9
[3] Building level 8
[1] Building level 10
[2] Building level 8
[1] Building level 11
[1] Building level 12
[1] Building level 13
[1] Building level 14
[3] Building level 9
[2] Building level 9
[3] Building level 10
[2] Building level 10
[3] Building level 11
[0] Building level 7
[3] Building level 12
[2] Building level 11
[4] Building level 7
[2] Building level 12
[3] Building level 13
[2] Building level 13
[2] Building level 14
[3] Building level 14
[4] Building level 8
[0] Building level 8
[4] Building level 9
[0] Building level 9
[4] Building level 10
[0] Building level 10
[4] Building level 11
[0] Building level 11
[4] Building level 12
[0] Building level 12
[4] Building level 13
[4] Building level 14
[0] Building level 13
[0] Building level 14
14 Level construction complete
[5] Building level 6
[5] Building level 7
[5] Building level 8
[5] Building level 9
[5] Building level 10
[5] Building level 11
[5] Building level 12
[5] Building level 13
[5] Building level 14
initial dot_x = 3.52298e+09
Iter #1 residual = 0.00421362
Iter #2 residual = 0.00359954
Iter #3 residual = 0.00207751
Iter #4 residual = 0.001954
Iter #5 residual = 0.00232529
Iter #6 residual = 0.00137076
Iter #7 residual = 0.00154161
Iter #8 residual = 0.0012423
Iter #9 residual = 0.00120032
Iter #10 residual = 0.00121097
Iter #11 residual = 0.0021323
Iter #12 residual = 0.00153624
Iter #13 residual = 0.00184054
Iter #14 residual = 0.00119875
Iter #15 residual = 0.00213965
Iter #16 residual = 0.00140616
Iter #17 residual = 0.00167114
Iter #18 residual = 0.00223056
Iter #19 residual = 0.00211903
Iter #20 residual = 0.00130157
Iter #21 residual = 0.00253775
Iter #22 residual = 0.0016568
Iter #23 residual = 0.00579185
Iter #24 residual = 0.00442522
Iter #25 residual = 0.0013227
Iter #26 residual = 0.000992999
Iter #27 residual = 0.00133428
Iter #28 residual = 0.00386424
Iter #29 residual = 0.00216038
Iter #30 residual = 0.00154669
Iter #31 residual = 0.00131528
Iter #32 residual = 0.00101467
Iter #33 residual = 0.000591991
Iter #34 residual = 0.000761718
Iter #35 residual = 0.000502174
Iter #36 residual = 0.000698973
Iter #37 residual = 0.000563484
Iter #38 residual = 0.000748786
Iter #39 residual = 0.000537102
Iter #40 residual = 0.000334346
Iter #41 residual = 0.000879153
Iter #42 residual = 0.000625436
Iter #43 residual = 0.00292242
Iter #44 residual = 0.00151944
Iter #45 residual = 0.000665423
Iter #46 residual = 0.000750506
Iter #47 residual = 0.000569038
GPU: 47 iters: 10.0353 s: 2.0434 GB/s
GPUAMG:  Solving for pd, Initial residual = 0.00654385, Final residual = 0.000226209, No Iterations 47
[1] Building level 0
[2] Building level 0
[0] Building level 0
[3] Building level 0
[4] Building level 0
[5] Building level 0
[5] Building level 1
[1] Building level 1
[4] Building level 1
[0] Building level 1
[3] Building level 1
[2] Building level 1
[1] Building level 2
[2] Building level 2
[4] Building level 2
[0] Building level 2
[5] Building level 2
[3] Building level 2
[1] Building level 3
[2] Building level 3
[3] Building level 3
[4] Building level 3
[0] Building level 3
[5] Building level 3
[1] Building level 4
[3] Building level 4
[2] Building level 4
[4] Building level 4
[0] Building level 4
[5] Building level 4
[1] Building level 5
[3] Building level 5
[2] Building level 5
[4] Building level 5
[0] Building level 5
[1] Building level 6
[3] Building level 6
[5] Building level 5
[2] Building level 6
[1] Building level 7
[4] Building level 6
[3] Building level 7
[1] Building level 8
[2] Building level 7
[1] Building level 9
[0] Building level 6
[1] Building level 10
[3] Building level 8
[1] Building level 11
[1] Building level 12
[1] Building level 13
[4] Building level 7
[1] Building level 14
[3] Building level 9
[2] Building level 8
[3] Building level 10
[5] Building level 6
[3] Building level 11
[3] Building level 12
[3] Building level 13
[2] Building level 9
[3] Building level 14
[4] Building level 8
[2] Building level 10
[2] Building level 11
[2] Building level 12
[4] Building level 9
[2] Building level 13
[2] Building level 14
[0] Building level 7
[4] Building level 10
[4] Building level 11
[4] Building level 12
[4] Building level 13
[4] Building level 14
[0] Building level 8
[5] Building level 7
[0] Building level 9
[0] Building level 10
[0] Building level 11
[0] Building level 12
[5] Building level 8
[0] Building level 13
[0] Building level 14
14 Level construction complete
[5] Building level 9
[5] Building level 10
[5] Building level 11
[5] Building level 12
[5] Building level 13
[5] Building level 14
initial dot_x = 2.19681e+09
Iter #1 residual = 0.00374806
Iter #2 residual = 0.00283868
Iter #3 residual = 0.00187519
Iter #4 residual = 0.00247051
Iter #5 residual = 0.00160391
Iter #6 residual = 0.00097882
Iter #7 residual = 0.0022089
Iter #8 residual = 0.00142939
Iter #9 residual = 0.00600611
Iter #10 residual = 0.00314083
Iter #11 residual = 0.00139088
Iter #12 residual = 0.000562996
Iter #13 residual = 0.00202768
Iter #14 residual = 0.00134541
Iter #15 residual = 0.00227813
Iter #16 residual = 0.00193464
Iter #17 residual = 0.00196027
Iter #18 residual = 0.00151108
Iter #19 residual = 0.00366604
Iter #20 residual = 0.00218379
Iter #21 residual = 0.00104572
Iter #22 residual = 0.00181256
Iter #23 residual = 0.00107019
Iter #24 residual = 0.000814956
Iter #25 residual = 0.000714442
Iter #26 residual = 0.000412532
Iter #27 residual = 0.00174303
Iter #28 residual = 0.00106743
Iter #29 residual = 0.000597295
Iter #30 residual = 0.000502329
Iter #31 residual = 0.000305758
Iter #32 residual = 0.000191175
Iter #33 residual = 0.000152716
Iter #34 residual = 9.53074e-05
Iter #35 residual = 0.00019192
Iter #36 residual = 0.000108046
Iter #37 residual = 6.18993e-05
Iter #38 residual = 5.24383e-05
Iter #39 residual = 7.15483e-05
Iter #40 residual = 0.000104683
Iter #41 residual = 5.61352e-05
Iter #42 residual = 0.000225854
Iter #43 residual = 0.000171959
Iter #44 residual = 9.753e-05
Iter #45 residual = 5.3493e-05
Iter #46 residual = 0.000138494
Iter #47 residual = 0.000123466
Iter #48 residual = 0.000183487
Iter #49 residual = 9.89635e-05
Iter #50 residual = 5.48525e-05
GPU: 50 iters: 10.6454 s: 2.04925 GB/s
GPUAMG:  Solving for pd, Initial residual = 0.00600748, Final residual = 3.46317e-05, No Iterations 50
time step continuity errors : sum local = 4.11291e-09, global = -2.47838e-09, cumulative = -7.65484e-08
ExecutionTime = 344.39 s  ClockTime = 361 s

Courant Number mean: 2.43995e-05 max: 0.0269145 velocity magnitude: 0.291322
Time = 0.006

MULES: Solving for alpha1
Liquid phase volume fraction = 0.00275429  Min(alpha1) = -7.98122e-32  Max(alpha1) = 1
MULES: Solving for alpha1
Liquid phase volume fraction = 0.00275429  Min(alpha1) = -1.33995e-31  Max(alpha1) = 1
[3] Building level 0
[2] Building level 0
[5] Building level 0
[4] Building level 0
[0] Building level 0
[1] Building level 0
[5] Building level 1
[1] Building level 1
[3] Building level 1
[4] Building level 1
[0] Building level 1
Reconstruction on level 1
[2] Building level 1
[2] Building level 2
[3] Building level 2
[4] Building level 2
[3] Building level 3
[2] Building level 3
[3] Building level 4
[2] Building level 4
[4] Building level 3
[3] Building level 5
[2] Building level 5
Creating AMGLevel 
[0] Building level 2
Reconstruction on level 2
[5] Building level 2
[1] Building level 2
[4] Building level 4
[3] Building level 6
[2] Building level 6
[3] Building level 7
[2] Building level 7
[3] Building level 8
[2] Building level 8
[3] Building level 9
[3] Building level 10
[2] Building level 9
[3] Building level 11
[4] Building level 5
[3] Building level 12
[3] Building level 13
[2] Building level 10
[3] Building level 14
[2] Building level 11
[2] Building level 12
[2] Building level 13
[2] Building level 14
Creating AMGLevel 
[0] Building level 3
Reconstruction on level 3
[5] Building level 3
[1] Building level 3
[4] Building level 6
[4] Building level 7
[4] Building level 8
[4] Building level 9
[4] Building level 10
[4] Building level 11
[4] Building level 12
[4] Building level 13
[4] Building level 14
Creating AMGLevel 
[0] Building level 4
Reconstruction on level 4
[5] Building level 4
[1] Building level 4
Creating AMGLevel 
[0] Building level 5
Reconstruction on level 5
[5] Building level 5
[1] Building level 5
Creating AMGLevel 
[0] Building level 6
Reconstruction on level 6
[5] Building level 6
[1] Building level 6
Creating AMGLevel 
[0] Building level 7
Reconstruction on level 7
[5] Building level 7
Creating AMGLevel 
[0] Building level 8
Reconstruction on level 8
[5] Building level 8
Creating AMGLevel 
[0] Building level 9
Reconstruction on level 9
[1] Building level 7
[5] Building level 9
Creating AMGLevel 
[0] Building level 10
Reconstruction on level 10
Creating AMGLevel 
[0] Building level 11
Reconstruction on level 11
[5] Building level 10
Creating AMGLevel 
[0] Building level 12
Reconstruction on level 12
Creating AMGLevel 
[0] Building level 13
Reconstruction on level 13
[5] Building level 11
Creating AMGLevel 
[0] Building level 14
Reconstruction on level 14
Creating AMGLevel 
14 Level construction complete
[5] Building level 12
[5] Building level 13
[5] Building level 14
[1] Building level 8
[1] Building level 9
[1] Building level 10
[1] Building level 11
[1] Building level 12
[1] Building level 13
[1] Building level 14
initial dot_x = 3.52568e+09
Iter #1 residual = 0.0282596
Iter #2 residual = 0.0228452
Iter #3 residual = 0.0155579
Iter #4 residual = 0.0103553
Iter #5 residual = 0.0102974
Iter #6 residual = 0.0110877
Iter #7 residual = 0.0111632
Iter #8 residual = 0.0102969
Iter #9 residual = 0.0423665
Iter #10 residual = 0.0247462
Iter #11 residual = 0.016196
Iter #12 residual = 0.011299
Iter #13 residual = 0.00860228
Iter #14 residual = 0.00400967
Iter #15 residual = 0.00368227
Iter #16 residual = 0.00339726
Iter #17 residual = 0.00618695
Iter #18 residual = 0.0040744
Iter #19 residual = 0.00439589
Iter #20 residual = 0.0047644
Iter #21 residual = 0.0031152
Iter #22 residual = 0.0017216
Iter #23 residual = 0.00147656
Iter #24 residual = 0.000846475
Iter #25 residual = 0.00115238
Iter #26 residual = 0.000827552
Iter #27 residual = 0.00299372
Iter #28 residual = 0.00187622
Iter #29 residual = 0.000892721
Iter #30 residual = 0.00166482
Iter #31 residual = 0.000994444
Iter #32 residual = 0.00145398
Iter #33 residual = 0.00104906
GPU: 33 iters: 7.14441 s: 2.01527 GB/s
GPUAMG:  Solving for pd, Initial residual = 0.00966565, Final residual = 0.0002944, No Iterations 33
[3] Building level 0
[2] Building level 0
[0] Building level 0
[5] Building level 0
[1] Building level 0
[4] Building level 0
[5] Building level 1
[1] Building level 1
[0] Building level 1
[4] Building level 1
[2] Building level 1
[3] Building level 1
[2] Building level 2
[1] Building level 2
[5] Building level 2
[0] Building level 2
[3] Building level 2
[4] Building level 2
[2] Building level 3
[1] Building level 3
[3] Building level 3
[5] Building level 3
[0] Building level 3
[4] Building level 3
[1] Building level 4
[2] Building level 4
[3] Building level 4
[0] Building level 4
[5] Building level 4
[4] Building level 4
[1] Building level 5
[2] Building level 5
[3] Building level 5
[0] Building level 5
[1] Building level 6
[5] Building level 5
[4] Building level 5
[2] Building level 6
[3] Building level 6
[1] Building level 7
[2] Building level 7
[0] Building level 6
[3] Building level 7
[1] Building level 8
[5] Building level 6
[2] Building level 8
[1] Building level 9
[4] Building level 6
[1] Building level 10
[3] Building level 8
[2] Building level 9
[1] Building level 11
[1] Building level 12
[1] Building level 13
[1] Building level 14
[2] Building level 10
[3] Building level 9
[2] Building level 11
[0] Building level 7
[2] Building level 12
[2] Building level 13
[2] Building level 14
[3] Building level 10
[3] Building level 11
[3] Building level 12
[3] Building level 13
[3] Building level 14
[5] Building level 7
[4] Building level 7
[0] Building level 8
[0] Building level 9
[5] Building level 8
[0] Building level 10
[0] Building level 11
[4] Building level 8
[0] Building level 12
[0] Building level 13
[0] Building level 14
[5] Building level 9
14 Level construction complete
[5] Building level 10
[4] Building level 9
[5] Building level 11
[5] Building level 12
[5] Building level 13
[5] Building level 14
[4] Building level 10
[4] Building level 11
[4] Building level 12
[4] Building level 13
[4] Building level 14
initial dot_x = 2.15908e+09
Iter #1 residual = 0.00377884
Iter #2 residual = 0.0044113
Iter #3 residual = 0.00274975
Iter #4 residual = 0.00853795
Iter #5 residual = 0.00604904
Iter #6 residual = 0.00178059
Iter #7 residual = 0.000696692
Iter #8 residual = 0.00322415
Iter #9 residual = 0.00277568
Iter #10 residual = 0.00263577
Iter #11 residual = 0.00136839
Iter #12 residual = 0.00133567
Iter #13 residual = 0.00101598
Iter #14 residual = 0.000845032
Iter #15 residual = 0.000648934
Iter #16 residual = 0.00259578
Iter #17 residual = 0.0016877
Iter #18 residual = 0.000899733
Iter #19 residual = 0.000717635
Iter #20 residual = 0.000696938
Iter #21 residual = 0.000358446
Iter #22 residual = 0.000566808
Iter #23 residual = 0.000358552
Iter #24 residual = 0.00103556
Iter #25 residual = 0.000589527
Iter #26 residual = 0.00106825
Iter #27 residual = 0.000984691
Iter #28 residual = 0.00170708
Iter #29 residual = 0.000982658
Iter #30 residual = 0.000762358
Iter #31 residual = 0.00160521
Iter #32 residual = 0.000968228
Iter #33 residual = 0.000408136
GPU: 33 iters: 7.15612 s: 2.01198 GB/s
GPUAMG:  Solving for pd, Initial residual = 0.00590315, Final residual = 0.000206454, No Iterations 33
[0] Building level 0
[4] Building level 0
[3] Building level 0
[2] Building level 0
[5] Building level 0
[1] Building level 0
[5] Building level 1
[1] Building level 1
[0] Building level 1
[4] Building level 1
[3] Building level 1
[2] Building level 1
[1] Building level 2
[2] Building level 2
[5] Building level 2
[4] Building level 2
[0] Building level 2
[3] Building level 2
[2] Building level 3
[1] Building level 3
[3] Building level 3
[4] Building level 3
[5] Building level 3
[0] Building level 3
[1] Building level 4
[3] Building level 4
[2] Building level 4
[0] Building level 4
[4] Building level 4
[5] Building level 4
[1] Building level 5
[3] Building level 5
[2] Building level 5
[0] Building level 5
[1] Building level 6
[4] Building level 5
[5] Building level 5
[3] Building level 6
[1] Building level 7
[2] Building level 6
[1] Building level 8
[4] Building level 6
[0] Building level 6
[1] Building level 9
[3] Building level 7
[1] Building level 10
[5] Building level 6
[1] Building level 11
[2] Building level 7
[1] Building level 12
[1] Building level 13
[1] Building level 14
[3] Building level 8
[4] Building level 7
[2] Building level 8
[3] Building level 9
[0] Building level 7
[3] Building level 10
[3] Building level 11
[2] Building level 9
[3] Building level 12
[3] Building level 13
[3] Building level 14
[5] Building level 7
[2] Building level 10
[4] Building level 8
[2] Building level 11
[2] Building level 12
[2] Building level 13
[2] Building level 14
[0] Building level 8
[4] Building level 9
[4] Building level 10
[5] Building level 8
[4] Building level 11
[0] Building level 9
[4] Building level 12
[4] Building level 13
[4] Building level 14
[0] Building level 10
[0] Building level 11
[5] Building level 9
[0] Building level 12
[0] Building level 13
[0] Building level 14
14 Level construction complete
[5] Building level 10
[5] Building level 11
[5] Building level 12
[5] Building level 13
[5] Building level 14
initial dot_x = 1.17977e+09
Iter #1 residual = 0.00423002
Iter #2 residual = 0.00453033
Iter #3 residual = 0.00214526
Iter #4 residual = 0.00738635
Iter #5 residual = 0.00450232
Iter #6 residual = 0.00244116
Iter #7 residual = 0.00163743
Iter #8 residual = 0.00132189
Iter #9 residual = 0.00247335
Iter #10 residual = 0.00169749
Iter #11 residual = 0.00445715
Iter #12 residual = 0.00365912
Iter #13 residual = 0.00141197
Iter #14 residual = 0.00113087
Iter #15 residual = 0.00429515
Iter #16 residual = 0.00283829
Iter #17 residual = 0.00283851
Iter #18 residual = 0.00147498
Iter #19 residual = 0.000700417
Iter #20 residual = 0.00047175
Iter #21 residual = 0.000602089
Iter #22 residual = 0.000505343
Iter #23 residual = 0.00208021
Iter #24 residual = 0.00132382
Iter #25 residual = 0.000770436
Iter #26 residual = 0.00124677
Iter #27 residual = 0.000567964
Iter #28 residual = 0.000381643
Iter #29 residual = 0.000140241
Iter #30 residual = 0.000299642
Iter #31 residual = 0.000140745
Iter #32 residual = 0.0001642
Iter #33 residual = 5.71488e-05
Iter #34 residual = 0.000265297
Iter #35 residual = 0.00018265
Iter #36 residual = 8.33851e-05
Iter #37 residual = 7.1975e-05
Iter #38 residual = 7.10073e-05
Iter #39 residual = 9.91116e-05
Iter #40 residual = 5.07417e-05
Iter #41 residual = 0.00020964
Iter #42 residual = 0.000192161
Iter #43 residual = 0.00013834
Iter #44 residual = 6.90514e-05
Iter #45 residual = 4.65751e-05
Iter #46 residual = 1.86378e-05
Iter #47 residual = 1.65766e-05
Iter #48 residual = 1.11087e-05
Iter #49 residual = 2.04721e-05
Iter #50 residual = 1.25756e-05
GPU: 50 iters: 10.7141 s: 2.03611 GB/s
GPUAMG:  Solving for pd, Initial residual = 0.00592427, Final residual = 2.20911e-05, No Iterations 50
time step continuity errors : sum local = 1.0814e-09, global = 1.15747e-11, cumulative = -7.65368e-08
ExecutionTime = 406.05 s  ClockTime = 424 s

Courant Number mean: 2.932e-05 max: 0.0292139 velocity magnitude: 0.228263
Time = 0.007

MULES: Solving for alpha1
Liquid phase volume fraction = 0.00275429  Min(alpha1) = -1.80066e-30  Max(alpha1) = 1
MULES: Solving for alpha1
Liquid phase volume fraction = 0.00275429  Min(alpha1) = -1.06303e-30  Max(alpha1) = 1
[2] Building level 0
[4] Building level 0
[1] Building level 0
[3] Building level 0
[0] Building level 0
[5] Building level 0
[5] Building level 1
[1] Building level 1
[0] Building level 1
Reconstruction on level 1
[4] Building level 1
[2] Building level 1
[3] Building level 1
[2] Building level 2
[4] Building level 2
[3] Building level 2
[2] Building level 3
[3] Building level 3
[3] Building level 4
[2] Building level 4
[4] Building level 3
[3] Building level 5
[2] Building level 5
Creating AMGLevel 
[5] Building level 2
[0] Building level 2
Reconstruction on level 2
[1] Building level 2
[4] Building level 4
[3] Building level 6
[2] Building level 6
[3] Building level 7
[2] Building level 7
[3] Building level 8
[2] Building level 8
[3] Building level 9
[2] Building level 9
[3] Building level 10
[2] Building level 10
[3] Building level 11
[3] Building level 12
[2] Building level 11
[3] Building level 13
[4] Building level 5
[2] Building level 12
[3] Building level 14
[2] Building level 13
[2] Building level 14
Creating AMGLevel 
[0] Building level 3
Reconstruction on level 3
[5] Building level 3
[1] Building level 3
[4] Building level 6
[4] Building level 7
[4] Building level 8
[4] Building level 9
[4] Building level 10
[4] Building level 11
[4] Building level 12
Creating AMGLevel 
[4] Building level 13
[0] Building level 4
Reconstruction on level 4
[4] Building level 14
[5] Building level 4
[1] Building level 4
Creating AMGLevel 
[0] Building level 5
Reconstruction on level 5
[5] Building level 5
[1] Building level 5
Creating AMGLevel 
[0] Building level 6
Reconstruction on level 6
[5] Building level 6
Creating AMGLevel 
[0] Building level 7
Reconstruction on level 7
[5] Building level 7
Creating AMGLevel 
[0] Building level 8
Reconstruction on level 8
[1] Building level 6
[5] Building level 8
Creating AMGLevel 
[0] Building level 9
Reconstruction on level 9
Creating AMGLevel 
[0] Building level 10
Reconstruction on level 10
[5] Building level 9
Creating AMGLevel 
[0] Building level 11
Reconstruction on level 11
Creating AMGLevel 
[0] Building level 12
Reconstruction on level 12
[5] Building level 10
Creating AMGLevel 
[0] Building level 13
Reconstruction on level 13
Creating AMGLevel 
[0] Building level 14
Reconstruction on level 14
[5] Building level 11
Creating AMGLevel 
14 Level construction complete
[5] Building level 12
[5] Building level 13
[5] Building level 14
[1] Building level 7
[1] Building level 8
[1] Building level 9
[1] Building level 10
[1] Building level 11
[1] Building level 12
[1] Building level 13
[1] Building level 14
initial dot_x = 2.79069e+09
Iter #1 residual = 0.0240399
Iter #2 residual = 0.0243675
Iter #3 residual = 0.0327252
Iter #4 residual = 0.0151543
Iter #5 residual = 0.0253995
Iter #6 residual = 0.0338472
Iter #7 residual = 0.0152417
Iter #8 residual = 0.0264073
Iter #9 residual = 0.0202692
Iter #10 residual = 0.00933598
Iter #11 residual = 0.00990239
Iter #12 residual = 0.00677129
Iter #13 residual = 0.00988085
Iter #14 residual = 0.00715651
Iter #15 residual = 0.0134276
Iter #16 residual = 0.0104795
Iter #17 residual = 0.00571634
Iter #18 residual = 0.0120622
Iter #19 residual = 0.0123169
Iter #20 residual = 0.00413537
Iter #21 residual = 0.00594101
Iter #22 residual = 0.0053574
Iter #23 residual = 0.00880846
Iter #24 residual = 0.00475128
Iter #25 residual = 0.0121488
Iter #26 residual = 0.00558738
Iter #27 residual = 0.00636687
Iter #28 residual = 0.00644292
Iter #29 residual = 0.00279137
Iter #30 residual = 0.00304089
Iter #31 residual = 0.00286898
Iter #32 residual = 0.00580894
Iter #33 residual = 0.00397598
Iter #34 residual = 0.00691242
Iter #35 residual = 0.00483027
Iter #36 residual = 0.00341475
Iter #37 residual = 0.00409882
Iter #38 residual = 0.00748136
Iter #39 residual = 0.0027496
Iter #40 residual = 0.00408964
Iter #41 residual = 0.0048927
Iter #42 residual = 0.00371715
Iter #43 residual = 0.00234851
Iter #44 residual = 0.00135571
Iter #45 residual = 0.00296601
Iter #46 residual = 0.00308756
Iter #47 residual = 0.00242754
Iter #48 residual = 0.00224403
Iter #49 residual = 0.000955863
Iter #50 residual = 0.00332114
GPU: 50 iters: 10.7105 s: 2.03679 GB/s
GPUAMG:  Solving for pd, Initial residual = 0.00935978, Final residual = 0.00617635, No Iterations 50
[0] Building level 0
[2] Building level 0
[3] Building level 0
[4] Building level 0
[1] Building level 0
[5] Building level 0
[5] Building level 1
[1] Building level 1
[0] Building level 1
[3] Building level 1
[4] Building level 1
[2] Building level 1
[1] Building level 2
[5] Building level 2
[2] Building level 2
[0] Building level 2
[3] Building level 2
[4] Building level 2
[2] Building level 3
[1] Building level 3
[5] Building level 3
[3] Building level 3
[4] Building level 3
[0] Building level 3
[2] Building level 4
[3] Building level 4
[5] Building level 4
[1] Building level 4
[4] Building level 4
[0] Building level 4
[2] Building level 5
[3] Building level 5
[5] Building level 5
[1] Building level 5
[2] Building level 6
[3] Building level 6
[4] Building level 5
[0] Building level 5
[2] Building level 7
[5] Building level 6
[3] Building level 7
[2] Building level 8
[1] Building level 6
[2] Building level 9
[2] Building level 10
[3] Building level 8
[2] Building level 11
[2] Building level 12
[2] Building level 13
[2] Building level 14
[5] Building level 7
[3] Building level 9
[4] Building level 6
[3] Building level 10
[0] Building level 6
[3] Building level 11
[3] Building level 12
[3] Building level 13
[3] Building level 14
[5] Building level 8
[1] Building level 7
[5] Building level 9
[5] Building level 10
[5] Building level 11
[1] Building level 8
[5] Building level 12
[5] Building level 13
[5] Building level 14
[1] Building level 9
[4] Building level 7
[0] Building level 7
[1] Building level 10
[1] Building level 11
[1] Building level 12
[1] Building level 13
[1] Building level 14
[4] Building level 8
[0] Building level 8
[4] Building level 9
[0] Building level 9
[4] Building level 10
[4] Building level 11
[0] Building level 10
[4] Building level 12
[4] Building level 13
[4] Building level 14
[0] Building level 11
[0] Building level 12
[0] Building level 13
[0] Building level 14
14 Level construction complete
initial dot_x = 1.24807e+09
Iter #1 residual = 0.00967997
Iter #2 residual = 0.00382529
Iter #3 residual = 0.00452732
Iter #4 residual = 0.00298544
Iter #5 residual = 0.00174491
Iter #6 residual = 0.00206481
Iter #7 residual = 0.00112732
Iter #8 residual = 0.00178899
Iter #9 residual = 0.00409944
Iter #10 residual = 0.00174091
Iter #11 residual = 0.00169083
Iter #12 residual = 0.00145744
Iter #13 residual = 0.0012618
Iter #14 residual = 0.00111946
Iter #15 residual = 0.00223193
Iter #16 residual = 0.00238067
Iter #17 residual = 0.000816914
Iter #18 residual = 0.00108908
Iter #19 residual = 0.00308451
Iter #20 residual = 0.00253095
Iter #21 residual = 0.000703787
Iter #22 residual = 0.00115741
Iter #23 residual = 0.00113766
GPU: 23 iters: 5.03425 s: 1.99333 GB/s
GPUAMG:  Solving for pd, Initial residual = 0.0117786, Final residual = 0.000329817, No Iterations 23
[0] Building level 0
[1] Building level 0
[5] Building level 0
[4] Building level 0
[3] Building level 0
[2] Building level 0
[5] Building level 1
[1] Building level 1
[0] Building level 1
[4] Building level 1
[2] Building level 1
[3] Building level 1
[1] Building level 2
[5] Building level 2
[2] Building level 2
[0] Building level 2
[4] Building level 2
[3] Building level 2
[1] Building level 3
[2] Building level 3
[5] Building level 3
[3] Building level 3
[4] Building level 3
[0] Building level 3
[2] Building level 4
[3] Building level 4
[1] Building level 4
[5] Building level 4
[4] Building level 4
[0] Building level 4
[2] Building level 5
[3] Building level 5
[1] Building level 5
[5] Building level 5
[4] Building level 5
[0] Building level 5
[2] Building level 6
[3] Building level 6
[1] Building level 6
[2] Building level 7
[3] Building level 7
[5] Building level 6
[4] Building level 6
[2] Building level 8
[3] Building level 8
[...]
[2] Building level 6
[3] Building level 6
[2] Building level 7
[3] Building level 7
[2] Building level 8
[3] Building level 8
Creating AMGLevel 
[2] Building level 9
[0] Building level 5
Reconstruction on level 5
[4] Building level 5
[3] Building level 9
[2] Building level 10
[2] Building level 11
[3] Building level 10
[2] Building level 12
[2] Building level 13
[2] Building level 14
[3] Building level 11
[3] Building level 12
[3] Building level 13
[3] Building level 14
[5] Building level 3
Creating AMGLevel 
[0] Building level 6
Reconstruction on level 6
[4] Building level 6
[1] Building level 3
Creating AMGLevel 
[0] Building level 7
Reconstruction on level 7
[4] Building level 7
Creating AMGLevel 
[0] Building level 8
Reconstruction on level 8
[4] Building level 8
Creating AMGLevel 
[0] Building level 9
Reconstruction on level 9
Creating AMGLevel 
[0] Building level 10
Reconstruction on level 10
[4] Building level 9
Creating AMGLevel 
[0] Building level 11
Reconstruction on level 11
Creating AMGLevel 
[0] Building level 12
Reconstruction on level 12
Creating AMGLevel 
[0] Building level 13
Reconstruction on level 13
Creating AMGLevel 
[0] Building level 14
Reconstruction on level 14
Creating AMGLevel 
14 Level construction complete
[4] Building level 10
[4] Building level 11
[4] Building level 12
[4] Building level 13
[4] Building level 14
[5] Building level 4
[1] Building level 4
[5] Building level 5
[1] Building level 5
[5] Building level 6
[5] Building level 7
[1] Building level 6
[5] Building level 8
[5] Building level 9
[5] Building level 10
[5] Building level 11
[5] Building level 12
[5] Building level 13
[5] Building level 14
[1] Building level 7
[1] Building level 8
[1] Building level 9
[1] Building level 10
[1] Building level 11
[1] Building level 12
[1] Building level 13
[1] Building level 14
initial dot_x = 1.39221e+09
Iter #1 residual = 0.0234719
Iter #2 residual = 0.0145923
Iter #3 residual = 0.0290281
Iter #4 residual = 0.0326856
Iter #5 residual = 0.0121199
Iter #6 residual = 0.024564
Iter #7 residual = 0.0153464
Iter #8 residual = 0.00687865
Iter #9 residual = 0.00400806
Iter #10 residual = 0.00470166
Iter #11 residual = 0.0117718
Iter #12 residual = 0.00637352
Iter #13 residual = 0.00795781
Iter #14 residual = 0.00816904
Iter #15 residual = 0.00515872
Iter #16 residual = 0.00350714
Iter #17 residual = 0.00771865
Iter #18 residual = 0.0048531
Iter #19 residual = 0.00870231
Iter #20 residual = 0.00759857
Iter #21 residual = 0.00489741
Iter #22 residual = 0.0114057
Iter #23 residual = 0.0078951
Iter #24 residual = 0.00208942
Iter #25 residual = 0.00412471
Iter #26 residual = 0.00339456
Iter #27 residual = 0.00201251
Iter #28 residual = 0.00137775
Iter #29 residual = 0.00234009
Iter #30 residual = 0.00206584
Iter #31 residual = 0.00207612
Iter #32 residual = 0.00199412
Iter #33 residual = 0.00116142
Iter #34 residual = 0.00406869
Iter #35 residual = 0.00267569
Iter #36 residual = 0.00254771
Iter #37 residual = 0.0023146
Iter #38 residual = 0.001969
Iter #39 residual = 0.00318312
Iter #40 residual = 0.00199486
Iter #41 residual = 0.00115161
Iter #42 residual = 0.000749412
GPU: 42 iters: 8.79135 s: 2.0844 GB/s
GPUAMG:  Solving for pd, Initial residual = 0.00974399, Final residual = 0.000378943, No Iterations 42
[1] Building level 0
[3] Building level 0
[2] Building level 0
[4] Building level 0
[5] Building level 0
[0] Building level 0
[1] Building level 1
[5] Building level 1
[2] Building level 1
[4] Building level 1
[0] Building level 1
[3] Building level 1
[0] Building level 2
[2] Building level 2
[1] Building level 2
[5] Building level 2
[4] Building level 2
[3] Building level 2
[2] Building level 3
[5] Building level 3
[0] Building level 3
[1] Building level 3
[3] Building level 3
[4] Building level 3
[2] Building level 4
[0] Building level 4
[1] Building level 4
[3] Building level 4
[5] Building level 4
[4] Building level 4
[2] Building level 5
[0] Building level 5
[1] Building level 5
[3] Building level 5
[5] Building level 5
[2] Building level 6
[0] Building level 6
[2] Building level 7
[4] Building level 5
[1] Building level 6
[3] Building level 6
[2] Building level 8
[0] Building level 7
[2] Building level 9
[5] Building level 6
[2] Building level 10
[1] Building level 7
[3] Building level 7
[2] Building level 11
[2] Building level 12
[2] Building level 13
[2] Building level 14
[0] Building level 8
[0] Building level 9
[1] Building level 8
[3] Building level 8
[0] Building level 10
[0] Building level 11
[0] Building level 12
[0] Building level 13
[0] Building level 14
14 Level construction complete
[5] Building level 7
[1] Building level 9
[3] Building level 9
[4] Building level 6
[1] Building level 10
[3] Building level 10
[3] Building level 11
[1] Building level 11
[3] Building level 12
[1] Building level 12
[3] Building level 13
[1] Building level 13
[3] Building level 14
[1] Building level 14
[5] Building level 8
[5] Building level 9
[5] Building level 10
[5] Building level 11
[5] Building level 12
[5] Building level 13
[5] Building level 14
[4] Building level 7
[4] Building level 8
[4] Building level 9
[4] Building level 10
[4] Building level 11
[4] Building level 12
[4] Building level 13
[4] Building level 14
initial dot_x = 1.0572e+09
Iter #1 residual = 0.0015813
Iter #2 residual = 0.00085686
Iter #3 residual = 0.00083789
Iter #4 residual = 0.000459706
Iter #5 residual = 0.000659945
Iter #6 residual = 0.000485716
GPU: 6 iters: 1.4311 s: 1.82923 GB/s
GPUAMG:  Solving for pd, Initial residual = 0.00524734, Final residual = 0.000169873, No Iterations 6
[1] Building level 0
[2] Building level 0
[5] Building level 0
[3] Building level 0
[0] Building level 0
[4] Building level 0
[5] Building level 1
[1] Building level 1
[4] Building level 1
[0] Building level 1
[3] Building level 1
[2] Building level 1
[5] Building level 2
[1] Building level 2
[0] Building level 2
[2] Building level 2
[4] Building level 2
[3] Building level 2
[2] Building level 3
[5] Building level 3
[1] Building level 3
[3] Building level 3
[0] Building level 3
[4] Building level 3
[2] Building level 4
[1] Building level 4
[3] Building level 4
[0] Building level 4
[5] Building level 4
[4] Building level 4
[2] Building level 5
[1] Building level 5
[3] Building level 5
[0] Building level 5
[5] Building level 5
[4] Building level 5
[2] Building level 6
[3] Building level 6
[0] Building level 6
[1] Building level 6
[2] Building level 7
[5] Building level 6
[3] Building level 7
[2] Building level 8
[1] Building level 7
[0] Building level 7
[2] Building level 9
[4] Building level 6
[2] Building level 10
[3] Building level 8
[2] Building level 11
[2] Building level 12
[2] Building level 13
[2] Building level 14
[0] Building level 8
[3] Building level 9
[1] Building level 8
[5] Building level 7
[3] Building level 10
[0] Building level 9
[3] Building level 11
[3] Building level 12
[1] Building level 9
[3] Building level 13
[3] Building level 14
[0] Building level 10
[1] Building level 10
[0] Building level 11
[0] Building level 12
[0] Building level 13
[1] Building level 11
[0] Building level 14
14 Level construction complete
[4] Building level 7
[1] Building level 12
[1] Building level 13
[1] Building level 14
[5] Building level 8
[5] Building level 9
[4] Building level 8
[5] Building level 10
[5] Building level 11
[5] Building level 12
[5] Building level 13
[5] Building level 14
[4] Building level 9
[4] Building level 10
[4] Building level 11
[4] Building level 12
[4] Building level 13
[4] Building level 14
initial dot_x = 1.1047e+09
Iter #1 residual = 0.000391466
Iter #2 residual = 0.000295699
Iter #3 residual = 0.000224271
Iter #4 residual = 0.000150145
Iter #5 residual = 0.000212266
Iter #6 residual = 0.00014165
Iter #7 residual = 0.000480631
Iter #8 residual = 0.000408295
Iter #9 residual = 0.000219503
Iter #10 residual = 0.000148625
Iter #11 residual = 7.45148e-05
Iter #12 residual = 5.90099e-05
Iter #13 residual = 0.000173415
Iter #14 residual = 0.000116045
Iter #15 residual = 0.000122076
Iter #16 residual = 8.07947e-05
Iter #17 residual = 9.51401e-05
Iter #18 residual = 5.93449e-05
Iter #19 residual = 0.000116246
Iter #20 residual = 0.000109276
Iter #21 residual = 4.32272e-05
Iter #22 residual = 0.000129557
Iter #23 residual = 7.26514e-05
Iter #24 residual = 5.78249e-05
Iter #25 residual = 5.63853e-05
Iter #26 residual = 4.70756e-05
Iter #27 residual = 3.38822e-05
Iter #28 residual = 2.35896e-05
Iter #29 residual = 2.08348e-05
Iter #30 residual = 1.38717e-05
Iter #31 residual = 7.02406e-06
Iter #32 residual = 1.40254e-05
Iter #33 residual = 9.64274e-06
Iter #34 residual = 1.27247e-05
Iter #35 residual = 7.03295e-06
Iter #36 residual = 5.6122e-06
Iter #37 residual = 4.20161e-06
Iter #38 residual = 5.95841e-06
Iter #39 residual = 4.13578e-06
Iter #40 residual = 3.58834e-06
Iter #41 residual = 4.46825e-06
Iter #42 residual = 3.42594e-06
Iter #43 residual = 3.131e-06
Iter #44 residual = 4.48085e-06
Iter #45 residual = 2.60276e-06
Iter #46 residual = 4.83613e-06
Iter #47 residual = 3.19744e-06
Iter #48 residual = 1.38213e-05
Iter #49 residual = 1.0429e-05
Iter #50 residual = 4.51208e-06
GPU: 50 iters: 10.387 s: 2.10022 GB/s
GPUAMG:  Solving for pd, Initial residual = 0.00480319, Final residual = 3.77321e-06, No Iterations 50
time step continuity errors : sum local = 1.7817e-10, global = 2.6286e-12, cumulative = -7.62357e-08
ExecutionTime = 579.71 s  ClockTime = 599 s

Courant Number mean: 4.46263e-05 max: 0.00971297 velocity magnitude: 0.149364
Time = 0.01

MULES: Solving for alpha1
Liquid phase volume fraction = 0.00275429  Min(alpha1) = -1.73581e-29  Max(alpha1) = 1
MULES: Solving for alpha1
Liquid phase volume fraction = 0.00275429  Min(alpha1) = -3.06158e-29  Max(alpha1) = 1
[1] Building level 0
[5] Building level 0
[0] Building level 0
[3] Building level 0
[2] Building level 0
[4] Building level 0
[5] Building level 1
[1] Building level 1
[0] Building level 1
[4] Building level 1
[3] Building level 1
[2] Building level 1
[0] Building level 2
Reconstruction on level 2
[2] Building level 2
[3] Building level 2
[2] Building level 3
[3] Building level 3
Creating AMGLevel 
[0] Building level 3
Reconstruction on level 3
[2] Building level 4
[3] Building level 4
[2] Building level 5
[3] Building level 5
[5] Building level 2
[4] Building level 2
Creating AMGLevel 
[0] Building level 4
Reconstruction on level 4
[1] Building level 2
[2] Building level 6
[3] Building level 6
[2] Building level 7
[3] Building level 7
[2] Building level 8
Creating AMGLevel 
[0] Building level 5
Reconstruction on level 5
[3] Building level 8
[2] Building level 9
[2] Building level 10
[3] Building level 9
[2] Building level 11
[2] Building level 12
[2] Building level 13
[2] Building level 14
[3] Building level 10
[3] Building level 11
[3] Building level 12
[3] Building level 13
[3] Building level 14
[5] Building level 3
Creating AMGLevel 
[0] Building level 6
Reconstruction on level 6
[4] Building level 3
[1] Building level 3
Creating AMGLevel 
[0] Building level 7
Reconstruction on level 7
Creating AMGLevel 
[0] Building level 8
Reconstruction on level 8
Creating AMGLevel 
[0] Building level 9
Reconstruction on level 9
Creating AMGLevel 
[0] Building level 10
Reconstruction on level 10
Creating AMGLevel 
[0] Building level 11
Reconstruction on level 11
Creating AMGLevel 
[0] Building level 12
Reconstruction on level 12
Creating AMGLevel 
[0] Building level 13
Reconstruction on level 13
Creating AMGLevel 
[0] Building level 14
Reconstruction on level 14
Creating AMGLevel 
14 Level construction complete
[5] Building level 4
[4] Building level 4
[1] Building level 4
[5] Building level 5
[4] Building level 5
[1] Building level 5
[5] Building level 6
[4] Building level 6
[5] Building level 7
[5] Building level 8
[1] Building level 6
[5] Building level 9
[4] Building level 7
[5] Building level 10
[5] Building level 11
[5] Building level 12
[5] Building level 13
[5] Building level 14
[4] Building level 8
[4] Building level 9
[1] Building level 7
[4] Building level 10
[4] Building level 11
[4] Building level 12
[4] Building level 13
[4] Building level 14
[1] Building level 8
[1] Building level 9
[1] Building level 10
[1] Building level 11
[1] Building level 12
[1] Building level 13
[1] Building level 14
initial dot_x = 1.17455e+09
Iter #1 residual = 0.0255993
Iter #2 residual = 0.0186585
Iter #3 residual = 0.0111145
Iter #4 residual = 0.0302258
Iter #5 residual = 0.0172972
Iter #6 residual = 0.0176807
Iter #7 residual = 0.0128617
Iter #8 residual = 0.00637661
Iter #9 residual = 0.00871099
Iter #10 residual = 0.00500292
Iter #11 residual = 0.0243878
Iter #12 residual = 0.0156702
Iter #13 residual = 0.00365778
Iter #14 residual = 0.00787619
Iter #15 residual = 0.0128161
Iter #16 residual = 0.00776152
Iter #17 residual = 0.0042928
Iter #18 residual = 0.00224623
Iter #19 residual = 0.00228968
Iter #20 residual = 0.00188251
Iter #21 residual = 0.00111307
Iter #22 residual = 0.00110918
Iter #23 residual = 0.000804324
Iter #24 residual = 0.00100111
Iter #25 residual = 0.000792932
Iter #26 residual = 0.00107347
Iter #27 residual = 0.000905492
Iter #28 residual = 0.0020318
Iter #29 residual = 0.00129133
Iter #30 residual = 0.00159819
Iter #31 residual = 0.00139072
Iter #32 residual = 0.0030152
Iter #33 residual = 0.00188651
Iter #34 residual = 0.00115968
Iter #35 residual = 0.00090389
Iter #36 residual = 0.000658794
Iter #37 residual = 0.00053918
GPU: 37 iters: 8.04437 s: 2.00676 GB/s
GPUAMG:  Solving for pd, Initial residual = 0.010316, Final residual = 0.000478093, No Iterations 37
[1] Building level 0
[0] Building level 0
[2] Building level 0
[3] Building level 0
[4] Building level 0
[5] Building level 0
[5] Building level 1
[1] Building level 1
[4] Building level 1
[2] Building level 1
[0] Building level 1
[3] Building level 1
[1] Building level 2
[5] Building level 2
[0] Building level 2
[2] Building level 2
[4] Building level 2
[3] Building level 2
[2] Building level 3
[5] Building level 3
[1] Building level 3
[0] Building level 3
[3] Building level 3
[4] Building level 3
[0] Building level 4
[1] Building level 4
[3] Building level 4
[2] Building level 4
[5] Building level 4
[4] Building level 4
[0] Building level 5
[1] Building level 5
[3] Building level 5
[2] Building level 5
[5] Building level 5
[4] Building level 5
[0] Building level 6
[1] Building level 6
[3] Building level 6
[2] Building level 6
[5] Building level 6
[0] Building level 7
[1] Building level 7
[3] Building level 7
[2] Building level 7
[4] Building level 6
[5] Building level 7
[0] Building level 8
[1] Building level 8
[3] Building level 8
[0] Building level 9
[2] Building level 8
[1] Building level 9
[0] Building level 10
[5] Building level 8
[1] Building level 10
[0] Building level 11
[0] Building level 12
[0] Building level 13
[3] Building level 9
[1] Building level 11
[0] Building level 14
14 Level construction complete
[2] Building level 9
[1] Building level 12
[1] Building level 13
[1] Building level 14
[5] Building level 9
[3] Building level 10
[2] Building level 10
[3] Building level 11
[5] Building level 10
[2] Building level 11
[3] Building level 12
[3] Building level 13
[2] Building level 12
[3] Building level 14
[2] Building level 13
[5] Building level 11
[2] Building level 14
[4] Building level 7
[5] Building level 12
[5] Building level 13
[5] Building level 14
[4] Building level 8
[4] Building level 9
[4] Building level 10
[4] Building level 11
[4] Building level 12
[4] Building level 13
[4] Building level 14
initial dot_x = 7.29818e+08
Iter #1 residual = 0.00326368
Iter #2 residual = 0.00207004
Iter #3 residual = 0.000969932
Iter #4 residual = 0.000767336
Iter #5 residual = 0.000591702
Iter #6 residual = 0.00092761
Iter #7 residual = 0.000824199
Iter #8 residual = 0.000481937
Iter #9 residual = 0.000685734
Iter #10 residual = 0.000372597
Iter #11 residual = 0.00102203
Iter #12 residual = 0.00094567
Iter #13 residual = 0.00027955
GPU: 13 iters: 2.96618 s: 1.91219 GB/s
GPUAMG:  Solving for pd, Initial residual = 0.00513167, Final residual = 0.000237519, No Iterations 13
[5] Building level 0
[2] Building level 0
[1] Building level 0
[3] Building level 0
[0] Building level 0
[4] Building level 0
[5] Building level 1
[1] Building level 1
[4] Building level 1
[3] Building level 1
[0] Building level 1
[2] Building level 1
[1] Building level 2
[5] Building level 2
[2] Building level 2
[0] Building level 2
[4] Building level 2
[3] Building level 2
[2] Building level 3
[1] Building level 3
[5] Building level 3
[0] Building level 3
[3] Building level 3
[4] Building level 3
[0] Building level 4
[1] Building level 4
[3] Building level 4
[2] Building level 4
[5] Building level 4
[4] Building level 4
[0] Building level 5
[3] Building level 5
[1] Building level 5
[2] Building level 5
[5] Building level 5
[4] Building level 5
[0] Building level 6
[3] Building level 6
[1] Building level 6
[2] Building level 6
[5] Building level 6
[0] Building level 7
[3] Building level 7
[1] Building level 7
[0] Building level 8
[3] Building level 8
[2] Building level 7
[4] Building level 6
[1] Building level 8
[0] Building level 9
[3] Building level 9
[5] Building level 7
[0] Building level 10
[3] Building level 10
[1] Building level 9
[0] Building level 11
[3] Building level 11
[0] Building level 12
[3] Building level 12
[0] Building level 13
[1] Building level 10
[0] Building level 14
[2] Building level 8
[3] Building level 13
14 Level construction complete
[3] Building level 14
[1] Building level 11
[1] Building level 12
[1] Building level 13
[1] Building level 14
[5] Building level 8
[2] Building level 9
[2] Building level 10
[5] Building level 9
[2] Building level 11
[2] Building level 12
[4] Building level 7
[2] Building level 13
[2] Building level 14
[5] Building level 10
[5] Building level 11
[5] Building level 12
[5] Building level 13
[5] Building level 14
[4] Building level 8
[4] Building level 9
[4] Building level 10
[4] Building level 11
[4] Building level 12
[4] Building level 13
[4] Building level 14
initial dot_x = 9.74436e+08
Iter #1 residual = 0.000419986
Iter #2 residual = 0.000365059
Iter #3 residual = 0.00031534
Iter #4 residual = 0.000166509
Iter #5 residual = 0.00028711
Iter #6 residual = 0.000198537
Iter #7 residual = 0.00058698
Iter #8 residual = 0.000342703
Iter #9 residual = 8.07692e-05
Iter #10 residual = 0.000208844
Iter #11 residual = 0.000216952
Iter #12 residual = 6.18286e-05
Iter #13 residual = 0.000333123
Iter #14 residual = 0.000215581
Iter #15 residual = 0.000110498
Iter #16 residual = 9.64581e-05
Iter #17 residual = 5.18034e-05
Iter #18 residual = 3.71299e-05
Iter #19 residual = 0.00011033
Iter #20 residual = 8.26481e-05
Iter #21 residual = 5.67381e-05
Iter #22 residual = 2.93619e-05
Iter #23 residual = 1.85178e-05
Iter #24 residual = 2.03769e-05
Iter #25 residual = 1.51405e-05
Iter #26 residual = 2.07491e-05
Iter #27 residual = 3.05323e-05
Iter #28 residual = 1.70631e-05
Iter #29 residual = 4.1165e-05
Iter #30 residual = 2.59416e-05
Iter #31 residual = 7.67684e-05
Iter #32 residual = 5.49491e-05
Iter #33 residual = 1.87024e-05
Iter #34 residual = 1.32102e-05
Iter #35 residual = 3.46588e-05
Iter #36 residual = 2.26208e-05
Iter #37 residual = 2.87375e-05
Iter #38 residual = 3.20141e-05
Iter #39 residual = 1.08782e-05
Iter #40 residual = 1.7049e-05
Iter #41 residual = 1.58194e-05
Iter #42 residual = 9.51184e-06
Iter #43 residual = 6.04885e-06
Iter #44 residual = 1.27374e-05
Iter #45 residual = 1.28072e-05
Iter #46 residual = 1.92748e-05
Iter #47 residual = 1.07903e-05
Iter #48 residual = 6.79275e-06
Iter #49 residual = 5.27657e-06
Iter #50 residual = 4.32069e-06
GPU: 50 iters: 10.8098 s: 2.01808 GB/s
GPUAMG:  Solving for pd, Initial residual = 0.00486868, Final residual = 2.90654e-06, No Iterations 50
time step continuity errors : sum local = 1.64498e-10, global = -4.22251e-11, cumulative = -7.62779e-08
ExecutionTime = 638.42 s  ClockTime = 659 s

End

Finalising parallel run
