 Data for JOB [55284,1] offset 0

 ========================   JOB MAP   ========================

 Data for node: ivb106	Num slots: 3	Max slots: 0	Num procs: 3
 	Process OMPI jobid: [55284,1] App: 0 Process rank: 0
 	Process OMPI jobid: [55284,1] App: 0 Process rank: 1
 	Process OMPI jobid: [55284,1] App: 0 Process rank: 2

 Data for node: ivb108	Num slots: 3	Max slots: 0	Num procs: 3
 	Process OMPI jobid: [55284,1] App: 0 Process rank: 3
 	Process OMPI jobid: [55284,1] App: 0 Process rank: 4
 	Process OMPI jobid: [55284,1] App: 0 Process rank: 5

 =============================================================
[ivb106:23654] MCW rank 0 bound to socket 0[core 0[hwt 0]]: [B/././././././././.][./././././././././.]
[ivb106:23654] MCW rank 1 bound to socket 0[core 1[hwt 0]]: [./B/./././././././.][./././././././././.]
[ivb106:23654] MCW rank 2 bound to socket 0[core 2[hwt 0]]: [././B/././././././.][./././././././././.]
[ivb108:10702] MCW rank 3 bound to socket 0[core 0[hwt 0]]: [B/././././././././.][./././././././././.]
[ivb108:10702] MCW rank 4 bound to socket 0[core 1[hwt 0]]: [./B/./././././././.][./././././././././.]
[ivb108:10702] MCW rank 5 bound to socket 0[core 2[hwt 0]]: [././B/././././././.][./././././././././.]
1
2
0
1
0
2
/*---------------------------------------------------------------------------*\
| =========                 |                                                 |
| \\      /  F ield         | foam-extend: Open Source CFD                    |
|  \\    /   O peration     | Version:     3.1                                |
|   \\  /    A nd           | Web:         http://www.extend-project.de       |
|    \\/     M anipulation  |                                                 |
\*---------------------------------------------------------------------------*/
Build    : 3.1-e2da948002a2
Exec     : interFoam -parallel
Date     : May 21 2016
Time     : 08:15:40
Host     : ivb106
PID      : 23691
CtrlDict : /home-2/vplatonov/foam/foam-extend-3.1/etc/controlDict
Case     : /home/vplatonov/tests/rt12mln
nProcs   : 6
Slaves : 
5
(
ivb106.23696
ivb106.23690
ivb108.10732
ivb108.10733
ivb108.10736
)

Pstream initialized with:
    floatTransfer     : 0
    nProcsSimpleSum   : 0
    commsType         : blocking
SigFpe   : Enabling floating point exception trapping (FOAM_SIGFPE).

// * * * * * * * * * * * * * * * * * * * * * * * * * * * * * * * * * * * * * //
Create time

Create mesh for time = 0


Reading g
Reading field pd

Reading field alpha1

Reading field U

Reading/calculating face flux field phi

Reading transportProperties

Selecting incompressible transport model Newtonian
Selecting incompressible transport model Newtonian
Calculating field g.h

Selecting turbulence model type laminar
time step continuity errors : sum local = 0, global = 0, cumulative = 0
Created persistent data with name pcorr
GPUAMG:  Solving for pcorr, Initial residual = 0, Final residual = 0, No Iterations 0
time step continuity errors : sum local = 0, global = 0, cumulative = 0
Courant Number mean: 0 max: 0 velocity magnitude: 0

Starting time loop

Courant Number mean: 0 max: 0 velocity magnitude: 0
Time = 0.001

MULES: Solving for alpha1
Liquid phase volume fraction = 0.00275421  Min(alpha1) = 0  Max(alpha1) = 1
MULES: Solving for alpha1
Liquid phase volume fraction = 0.00275421  Min(alpha1) = 0  Max(alpha1) = 1
Created persistent data with name pd
[0] Building level 0
[1] Building level 0
[2] Building level 0
[3] Building level 0
[5] Building level 0
[4] Building level 0
Creating AMGLevel 
[1] Building level 1
[2] Building level 1
[3] Building level 1
[4] Building level 1
[0] Building level 1
[5] Building level 1
[1] Building level 2
[2] Building level 2
[4] Building level 2
Creating AMGLevel 
[3] Building level 2
[0] Building level 2
[5] Building level 2
[1] Building level 3
[2] Building level 3
[3] Building level 3
Creating AMGLevel 
[4] Building level 3
[0] Building level 3
[5] Building level 3
[2] Building level 4
[1] Building level 4
Creating AMGLevel 
[0] Building level 4
[3] Building level 4
[4] Building level 4
[5] Building level 4
[2] Building level 5
[1] Building level 5
Creating AMGLevel 
[0] Building level 5
[3] Building level 5
[4] Building level 5
[5] Building level 5
[2] Building level 6
[1] Building level 6
Creating AMGLevel 
[0] Building level 6
[3] Building level 6
[4] Building level 6
[2] Building level 7
[1] Building level 7
Creating AMGLevel 
[0] Building level 7
[2] Building level 8
[5] Building level 6
[1] Building level 8
[3] Building level 7
[4] Building level 7
[2] Building level 9
[1] Building level 9
Creating AMGLevel 
[0] Building level 8
[2] Building level 10
[1] Building level 10
[3] Building level 8
[1] Building level 11
[2] Building level 11
[4] Building level 8
[1] Building level 12
[2] Building level 12
Creating AMGLevel 
[0] Building level 9
[1] Building level 13
[2] Building level 13
[1] Building level 14
[2] Building level 14
Creating AMGLevel 
[0] Building level 10
[3] Building level 9
[5] Building level 7
Creating AMGLevel 
[0] Building level 11
[4] Building level 9
Creating AMGLevel 
[0] Building level 12
[3] Building level 10
Creating AMGLevel 
[0] Building level 13
Creating AMGLevel 
[0] Building level 14
Creating AMGLevel 
14 Level construction complete
[4] Building level 10
[3] Building level 11
[3] Building level 12
[3] Building level 13
[4] Building level 11
[3] Building level 14
[4] Building level 12
[5] Building level 8
[4] Building level 13
[4] Building level 14
[5] Building level 9
[5] Building level 10
[5] Building level 11
[5] Building level 12
[5] Building level 13
[5] Building level 14
initial dot_x = 0
Iter #1 residual = 0.0735199
GPU: 1 iters: 0.377522 s: 1.15534 GB/s
GPUAMG:  Solving for pd, Initial residual = 1, Final residual = 0.0272261, No Iterations 1
[2] Building level 0
[1] Building level 0
[0] Building level 0
[4] Building level 0
[5] Building level 0
[3] Building level 0
[2] Building level 1
[0] Building level 1
[1] Building level 1
[4] Building level 1
[3] Building level 1
[5] Building level 1
[1] Building level 2
[0] Building level 2
[4] Building level 2
[2] Building level 2
[3] Building level 2
[5] Building level 2
[1] Building level 3
[2] Building level 3
[0] Building level 3
[4] Building level 3
[3] Building level 3
[5] Building level 3
[1] Building level 4
[2] Building level 4
[0] Building level 4
[4] Building level 4
[3] Building level 4
[5] Building level 4
[2] Building level 5
[1] Building level 5
[0] Building level 5
[4] Building level 5
[3] Building level 5
[1] Building level 6
[2] Building level 6
[0] Building level 6
[5] Building level 5
[1] Building level 7
[4] Building level 6
[2] Building level 7
[1] Building level 8
[0] Building level 7
[2] Building level 8
[1] Building level 9
[3] Building level 6
[1] Building level 10
[1] Building level 11
[0] Building level 8
[1] Building level 12
[2] Building level 9
[1] Building level 13
[4] Building level 7
[1] Building level 14
[2] Building level 10
[2] Building level 11
[0] Building level 9
[2] Building level 12
[2] Building level 13
[2] Building level 14
[0] Building level 10
[5] Building level 6
[0] Building level 11
[0] Building level 12
[0] Building level 13
[0] Building level 14
[4] Building level 8
14 Level construction complete
[3] Building level 7
[4] Building level 9
[4] Building level 10
[4] Building level 11
[4] Building level 12
[4] Building level 13
[4] Building level 14
[3] Building level 8
[5] Building level 7
[3] Building level 9
[3] Building level 10
[3] Building level 11
[3] Building level 12
[3] Building level 13
[3] Building level 14
[5] Building level 8
[5] Building level 9
[5] Building level 10
[5] Building level 11
[5] Building level 12
[5] Building level 13
[5] Building level 14
initial dot_x = 75861.5
Iter #1 residual = 0.00834942
Iter #2 residual = 0.0043068
Iter #3 residual = 0.00228683
Iter #4 residual = 0.00122417
GPU: 4 iters: 0.925581 s: 1.88494 GB/s
GPUAMG:  Solving for pd, Initial residual = 0.0195892, Final residual = 0.000647551, No Iterations 4
[0] Building level 0
[2] Building level 0
[1] Building level 0
[3] Building level 0
[5] Building level 0
[4] Building level 0
[0] Building level 1
[1] Building level 1
[2] Building level 1
[3] Building level 1
[4] Building level 1
[5] Building level 1
[0] Building level 2
[1] Building level 2
[2] Building level 2
[4] Building level 2
[3] Building level 2
[5] Building level 2
[1] Building level 3
[2] Building level 3
[0] Building level 3
[4] Building level 3
[3] Building level 3
[5] Building level 3
[1] Building level 4
[2] Building level 4
[0] Building level 4
[4] Building level 4
[3] Building level 4
[5] Building level 4
[2] Building level 5
[1] Building level 5
[0] Building level 5
[4] Building level 5
[3] Building level 5
[1] Building level 6
[2] Building level 6
[0] Building level 6
[1] Building level 7
[2] Building level 7
[5] Building level 5
[0] Building level 7
[1] Building level 8
[4] Building level 6
[3] Building level 6
[2] Building level 8
[1] Building level 9
[1] Building level 10
[0] Building level 8
[1] Building level 11
[2] Building level 9
[1] Building level 12
[1] Building level 13
[1] Building level 14
[2] Building level 10
[0] Building level 9
[2] Building level 11
[2] Building level 12
[2] Building level 13
[0] Building level 10
[2] Building level 14
[0] Building level 11
[0] Building level 12
[0] Building level 13
[0] Building level 14
14 Level construction complete
[4] Building level 7
[3] Building level 7
[5] Building level 6
[4] Building level 8
[3] Building level 8
[3] Building level 9
[4] Building level 9
[3] Building level 10
[4] Building level 10
[3] Building level 11
[4] Building level 11
[3] Building level 12
[3] Building level 13
[4] Building level 12
[3] Building level 14
[4] Building level 13
[4] Building level 14
[5] Building level 7
[5] Building level 8
[5] Building level 9
[5] Building level 10
[5] Building level 11
[5] Building level 12
[5] Building level 13
[5] Building level 14
initial dot_x = 126204
Iter #1 residual = 0.00255076
Iter #2 residual = 0.00115629
Iter #3 residual = 0.000570999
Iter #4 residual = 0.000292803
Iter #5 residual = 0.000160957
Iter #6 residual = 9.83988e-05
Iter #7 residual = 6.27366e-05
Iter #8 residual = 3.99649e-05
Iter #9 residual = 2.65681e-05
Iter #10 residual = 1.78444e-05
Iter #11 residual = 1.41706e-05
Iter #12 residual = 8.97223e-06
Iter #13 residual = 9.40328e-06
Iter #14 residual = 6.43428e-06
Iter #15 residual = 5.56363e-06
Iter #16 residual = 5.25392e-06
Iter #17 residual = 3.43895e-06
Iter #18 residual = 3.49315e-06
Iter #19 residual = 2.11076e-06
Iter #20 residual = 4.56849e-06
Iter #21 residual = 2.54638e-06
Iter #22 residual = 1.77506e-06
Iter #23 residual = 3.04635e-06
Iter #24 residual = 2.08041e-06
Iter #25 residual = 1.14351e-06
Iter #26 residual = 9.79576e-07
Iter #27 residual = 8.69687e-07
Iter #28 residual = 7.76647e-07
Iter #29 residual = 9.635e-07
Iter #30 residual = 6.95085e-07
Iter #31 residual = 5.76785e-07
Iter #32 residual = 8.68464e-07
Iter #33 residual = 5.70423e-07
Iter #34 residual = 7.4361e-07
Iter #35 residual = 4.70505e-07
Iter #36 residual = 7.18133e-07
Iter #37 residual = 4.47078e-07
Iter #38 residual = 5.21285e-07
Iter #39 residual = 3.65997e-07
Iter #40 residual = 4.2989e-07
Iter #41 residual = 5.51818e-07
Iter #42 residual = 4.22578e-07
Iter #43 residual = 8.36097e-07
Iter #44 residual = 5.41442e-07
Iter #45 residual = 3.93739e-07
Iter #46 residual = 3.70397e-07
Iter #47 residual = 3.78699e-07
Iter #48 residual = 1.12143e-06
Iter #49 residual = 7.13207e-07
Iter #50 residual = 1.3776e-06
GPU: 50 iters: 9.35301 s: 2.33169 GB/s
GPUAMG:  Solving for pd, Initial residual = 0.00627366, Final residual = 6.95471e-07, No Iterations 50
time step continuity errors : sum local = 5.33221e-11, global = -1.89314e-24, cumulative = -1.89314e-24
ExecutionTime = 68.06 s  ClockTime = 79 s

Courant Number mean: 4.83973e-06 max: 0.00216219 velocity magnitude: 0.0337842
Time = 0.002

MULES: Solving for alpha1
Liquid phase volume fraction = 0.00275421  Min(alpha1) = 0  Max(alpha1) = 1
MULES: Solving for alpha1
Liquid phase volume fraction = 0.00275421  Min(alpha1) = 0  Max(alpha1) = 1
[1] Building level 0
[0] Building level 0
[2] Building level 0
[5] Building level 0
[3] Building level 0
[4] Building level 0
[0] Building level 1
Reconstruction on level 1
[1] Building level 1
[2] Building level 1
[3] Building level 1
[4] Building level 1
[5] Building level 1
[2] Building level 2
[3] Building level 2
[2] Building level 3
[3] Building level 3
[2] Building level 4
[3] Building level 4
[2] Building level 5
[3] Building level 5
[1] Building level 2
Creating AMGLevel 
[4] Building level 2
[0] Building level 2
Reconstruction on level 2
[2] Building level 6
[5] Building level 2
[3] Building level 6
[2] Building level 7
[3] Building level 7
[2] Building level 8
[3] Building level 8
[2] Building level 9
[2] Building level 10
[3] Building level 9
[2] Building level 11
[2] Building level 12
[3] Building level 10
[2] Building level 13
[2] Building level 14
[3] Building level 11
[3] Building level 12
[3] Building level 13
[3] Building level 14
[1] Building level 3
Creating AMGLevel 
[0] Building level 3
Reconstruction on level 3
[4] Building level 3
[5] Building level 3
[1] Building level 4
Creating AMGLevel 
[0] Building level 4
Reconstruction on level 4
[4] Building level 4
[5] Building level 4
[1] Building level 5
Creating AMGLevel 
[0] Building level 5
Reconstruction on level 5
[1] Building level 6
[4] Building level 5
[5] Building level 5
Creating AMGLevel 
[0] Building level 6
Reconstruction on level 6
[1] Building level 7
[1] Building level 8
[4] Building level 6
[1] Building level 9
Creating AMGLevel 
[0] Building level 7
Reconstruction on level 7
[1] Building level 10
[1] Building level 11
[1] Building level 12
[5] Building level 6
[1] Building level 13
[1] Building level 14
Creating AMGLevel 
[0] Building level 8
Reconstruction on level 8
Creating AMGLevel 
[0] Building level 9
Reconstruction on level 9
[4] Building level 7
Creating AMGLevel 
[0] Building level 10
Reconstruction on level 10
Creating AMGLevel 
[0] Building level 11
Reconstruction on level 11
Creating AMGLevel 
[0] Building level 12
Reconstruction on level 12
[5] Building level 7
Creating AMGLevel 
[0] Building level 13
Reconstruction on level 13
Creating AMGLevel 
[0] Building level 14
Reconstruction on level 14
Creating AMGLevel 
14 Level construction complete
[4] Building level 8
[5] Building level 8
[4] Building level 9
[4] Building level 10
[4] Building level 11
[5] Building level 9
[4] Building level 12
[4] Building level 13
[4] Building level 14
[5] Building level 10
[5] Building level 11
[5] Building level 12
[5] Building level 13
[5] Building level 14
initial dot_x = 114592
Iter #1 residual = 0.0193653
Iter #2 residual = 0.015483
Iter #3 residual = 0.0109256
Iter #4 residual = 0.00849835
Iter #5 residual = 0.0121854
Iter #6 residual = 0.00738111
Iter #7 residual = 0.00467754
Iter #8 residual = 0.0116249
Iter #9 residual = 0.0117411
Iter #10 residual = 0.00868458
Iter #11 residual = 0.0095836
Iter #12 residual = 0.00489668
Iter #13 residual = 0.0122616
Iter #14 residual = 0.00795801
Iter #15 residual = 0.0139582
Iter #16 residual = 0.0158406
Iter #17 residual = 0.0123703
Iter #18 residual = 0.00947426
Iter #19 residual = 0.00771352
Iter #20 residual = 0.00656991
Iter #21 residual = 0.0062752
Iter #22 residual = 0.00609476
Iter #23 residual = 0.0094423
Iter #24 residual = 0.0105362
Iter #25 residual = 0.00891715
Iter #26 residual = 0.00479274
Iter #27 residual = 0.00680862
Iter #28 residual = 0.00583972
Iter #29 residual = 0.00661318
Iter #30 residual = 0.00308431
Iter #31 residual = 0.00249258
Iter #32 residual = 0.00305587
Iter #33 residual = 0.00387606
Iter #34 residual = 0.00215828
Iter #35 residual = 0.00358
Iter #36 residual = 0.00374221
Iter #37 residual = 0.00187166
Iter #38 residual = 0.00447266
Iter #39 residual = 0.00284217
Iter #40 residual = 0.00196381
Iter #41 residual = 0.00113219
Iter #42 residual = 0.00287097
Iter #43 residual = 0.00190343
Iter #44 residual = 0.00228624
Iter #45 residual = 0.00278722
Iter #46 residual = 0.00175177
Iter #47 residual = 0.00131935
Iter #48 residual = 0.00198228
Iter #49 residual = 0.00112356
Iter #50 residual = 0.00307103
GPU: 50 iters: 8.74236 s: 2.49456 GB/s
GPUAMG:  Solving for pd, Initial residual = 0.00446202, Final residual = 0.00139604, No Iterations 50
[2] Building level 0
[0] Building level 0
[1] Building level 0
[5] Building level 0
[4] Building level 0
[3] Building level 0
[2] Building level 1
[0] Building level 1
[1] Building level 1
[4] Building level 1
[3] Building level 1
[5] Building level 1
[0] Building level 2
[2] Building level 2
[4] Building level 2
[1] Building level 2
[3] Building level 2
[5] Building level 2
[2] Building level 3
[0] Building level 3
[1] Building level 3
[4] Building level 3
[3] Building level 3
[5] Building level 3
[0] Building level 4
[2] Building level 4
[1] Building level 4
[4] Building level 4
[3] Building level 4
[0] Building level 5
[1] Building level 5
[2] Building level 5
[5] Building level 4
[0] Building level 6
[1] Building level 6
[4] Building level 5
[2] Building level 6
[0] Building level 7
[1] Building level 7
[3] Building level 5
[0] Building level 8
[2] Building level 7
[1] Building level 8
[0] Building level 9
[0] Building level 10
[0] Building level 11
[1] Building level 9
[0] Building level 12
[0] Building level 13
[0] Building level 14
14 Level construction complete
[1] Building level 10
[1] Building level 11
[2] Building level 8
[1] Building level 12
[1] Building level 13
[1] Building level 14
[4] Building level 6
[2] Building level 9
[2] Building level 10
[5] Building level 5
[2] Building level 11
[2] Building level 12
[2] Building level 13
[2] Building level 14
[3] Building level 6
[4] Building level 7
[4] Building level 8
[4] Building level 9
[4] Building level 10
[3] Building level 7
[4] Building level 11
[4] Building level 12
[4] Building level 13
[4] Building level 14
[5] Building level 6
[3] Building level 8
[3] Building level 9
[3] Building level 10
[3] Building level 11
[3] Building level 12
[3] Building level 13
[3] Building level 14
[5] Building level 7
[5] Building level 8
[5] Building level 9
[5] Building level 10
[5] Building level 11
[5] Building level 12
[5] Building level 13
[5] Building level 14
initial dot_x = 7.1161e+09
Iter #1 residual = 0.0222313
Iter #2 residual = 0.0297041
Iter #3 residual = 0.014575
Iter #4 residual = 0.0129351
Iter #5 residual = 0.0109061
Iter #6 residual = 0.00958364
Iter #7 residual = 0.00767374
Iter #8 residual = 0.0135417
Iter #9 residual = 0.00669676
Iter #10 residual = 0.00889222
Iter #11 residual = 0.0077702
Iter #12 residual = 0.0102514
Iter #13 residual = 0.00711756
Iter #14 residual = 0.0109523
Iter #15 residual = 0.00732572
Iter #16 residual = 0.0040405
Iter #17 residual = 0.00838553
Iter #18 residual = 0.00504918
Iter #19 residual = 0.00939978
Iter #20 residual = 0.00597904
Iter #21 residual = 0.00624731
Iter #22 residual = 0.00547463
Iter #23 residual = 0.00757397
Iter #24 residual = 0.00489107
Iter #25 residual = 0.00823742
Iter #26 residual = 0.00834352
Iter #27 residual = 0.00896103
Iter #28 residual = 0.00463763
Iter #29 residual = 0.00469932
Iter #30 residual = 0.00344844
Iter #31 residual = 0.00525329
Iter #32 residual = 0.00373849
Iter #33 residual = 0.00618152
Iter #34 residual = 0.00388707
Iter #35 residual = 0.00674026
Iter #36 residual = 0.00393897
Iter #37 residual = 0.00188991
Iter #38 residual = 0.00469847
Iter #39 residual = 0.00355078
Iter #40 residual = 0.00478863
Iter #41 residual = 0.00496047
Iter #42 residual = 0.0046531
Iter #43 residual = 0.00238519
Iter #44 residual = 0.00306437
Iter #45 residual = 0.00260539
Iter #46 residual = 0.00396598
Iter #47 residual = 0.00280432
Iter #48 residual = 0.00210086
Iter #49 residual = 0.00130052
Iter #50 residual = 0.00428529
GPU: 50 iters: 8.72892 s: 2.4984 GB/s
GPUAMG:  Solving for pd, Initial residual = 0.00532823, Final residual = 0.00227632, No Iterations 50
[1] Building level 0
[2] Building level 0
[0] Building level 0
[4] Building level 0
[5] Building level 0
[3] Building level 0
[0] Building level 1
[1] Building level 1
[2] Building level 1
[3] Building level 1
[4] Building level 1
[5] Building level 1
[0] Building level 2
[4] Building level 2
[1] Building level 2
[2] Building level 2
[3] Building level 2
[5] Building level 2
[0] Building level 3
[4] Building level 3
[1] Building level 3
[2] Building level 3
[3] Building level 3
[5] Building level 3
[1] Building level 4
[0] Building level 4
[2] Building level 4
[4] Building level 4
[3] Building level 4
[5] Building level 4
[1] Building level 5
[0] Building level 5
[2] Building level 5
[4] Building level 5
[1] Building level 6
[0] Building level 6
[3] Building level 5
[1] Building level 7
[5] Building level 5
[0] Building level 7
[2] Building level 6
[1] Building level 8
[1] Building level 9
[1] Building level 10
[4] Building level 6
[0] Building level 8
[1] Building level 11
[1] Building level 12
[1] Building level 13
[1] Building level 14
[0] Building level 9
[3] Building level 6
[0] Building level 10
[0] Building level 11
[0] Building level 12
[0] Building level 13
[0] Building level 14
14 Level construction complete
[2] Building level 7
[4] Building level 7
[2] Building level 8
[5] Building level 6
[2] Building level 9
[3] Building level 7
[4] Building level 8
[2] Building level 10
[2] Building level 11
[2] Building level 12
[2] Building level 13
[2] Building level 14
[4] Building level 9
[3] Building level 8
[4] Building level 10
[4] Building level 11
[4] Building level 12
[4] Building level 13
[4] Building level 14
[5] Building level 7
[3] Building level 9
[3] Building level 10
[3] Building level 11
[3] Building level 12
[3] Building level 13
[3] Building level 14
[5] Building level 8
[5] Building level 9
[5] Building level 10
[5] Building level 11
[5] Building level 12
[5] Building level 13
[5] Building level 14
initial dot_x = 134231
Iter #1 residual = 0.0172199
Iter #2 residual = 0.0165159
Iter #3 residual = 0.010179
Iter #4 residual = 0.0113684
Iter #5 residual = 0.00908515
Iter #6 residual = 0.016987
Iter #7 residual = 0.0083793
Iter #8 residual = 0.00874705
Iter #9 residual = 0.00603117
Iter #10 residual = 0.0105188
Iter #11 residual = 0.00655734
Iter #12 residual = 0.00240302
Iter #13 residual = 0.010122
Iter #14 residual = 0.0112832
Iter #15 residual = 0.00382019
Iter #16 residual = 0.00940703
Iter #17 residual = 0.00860516
Iter #18 residual = 0.00510199
Iter #19 residual = 0.00660324
Iter #20 residual = 0.0060632
Iter #21 residual = 0.00536745
Iter #22 residual = 0.00585848
Iter #23 residual = 0.00479831
Iter #24 residual = 0.00851605
Iter #25 residual = 0.00920718
Iter #26 residual = 0.00296991
Iter #27 residual = 0.00453989
Iter #28 residual = 0.00702575
Iter #29 residual = 0.00477959
Iter #30 residual = 0.0034288
Iter #31 residual = 0.00248529
Iter #32 residual = 0.00230369
Iter #33 residual = 0.00706317
Iter #34 residual = 0.00271264
Iter #35 residual = 0.00338764
Iter #36 residual = 0.00680047
Iter #37 residual = 0.00777767
Iter #38 residual = 0.00184935
Iter #39 residual = 0.00238179
Iter #40 residual = 0.00423863
Iter #41 residual = 0.00231612
Iter #42 residual = 0.000789326
GMRES:  Solving for topLevelCorr, Initial residual = 0.89116, Final residual = 0.924779, No Iterations 200
Iter #43 residual = 0.000728525
GMRES:  Solving for topLevelCorr, Initial residual = 0.86469, Final residual = 0.935784, No Iterations 200
Iter #44 residual = 0.000420329
GMRES:  Solving for topLevelCorr, Initial residual = 0.896813, Final residual = 1.06998, No Iterations 200
Iter #45 residual = 0.000426017
GMRES:  Solving for topLevelCorr, Initial residual = 0.84978, Final residual = 0.868002, No Iterations 200
Iter #46 residual = 0.000327025
GMRES:  Solving for topLevelCorr, Initial residual = 0.908768, Final residual = 1.11285, No Iterations 200
Iter #47 residual = 0.000433109
Iter #48 residual = 0.00354431
Iter #49 residual = 0.00137651
Iter #50 residual = 0.00131204
GPU: 50 iters: 8.73036 s: 2.49799 GB/s
GPUAMG:  Solving for pd, Initial residual = 0.00618964, Final residual = 0.00207112, No Iterations 50
time step continuity errors : sum local = 1.34166e-07, global = -4.12187e-08, cumulative = -4.12187e-08
ExecutionTime = 125.06 s  ClockTime = 137 s

Courant Number mean: 1.316e-05 max: 0.196271 velocity magnitude: 1.53337
Time = 0.003

MULES: Solving for alpha1
Liquid phase volume fraction = 0.00275424  Min(alpha1) = -1.0622e-30  Max(alpha1) = 1
MULES: Solving for alpha1
Liquid phase volume fraction = 0.00275426  Min(alpha1) = -1.99583e-30  Max(alpha1) = 1
[2] Building level 0
[0] Building level 0
[1] Building level 0
[3] Building level 0
[4] Building level 0
[5] Building level 0
[0] Building level 1
Reconstruction on level 1
[2] Building level 1
[3] Building level 1
[4] Building level 1
[1] Building level 1
[5] Building level 1
[4] Building level 2
[2] Building level 2
[3] Building level 2
[1] Building level 2
[2] Building level 3
[3] Building level 3
[2] Building level 4
[3] Building level 4
[1] Building level 3
[4] Building level 3
[2] Building level 5
[3] Building level 5
Creating AMGLevel 
[0] Building level 2
Reconstruction on level 2
[5] Building level 2
[2] Building level 6
[1] Building level 4
[3] Building level 6
[4] Building level 4
[2] Building level 7
[3] Building level 7
[2] Building level 8
[3] Building level 8
[2] Building level 9
[3] Building level 9
[2] Building level 10
[2] Building level 11
[2] Building level 12
[3] Building level 10
[2] Building level 13
[3] Building level 11
[2] Building level 14
[3] Building level 12
[3] Building level 13
[3] Building level 14
[1] Building level 5
[4] Building level 5
Creating AMGLevel 
[0] Building level 3
Reconstruction on level 3
[1] Building level 6
[5] Building level 3
[4] Building level 6
[1] Building level 7
[4] Building level 7
[1] Building level 8
[1] Building level 9
[1] Building level 10
[4] Building level 8
[1] Building level 11
[1] Building level 12
[1] Building level 13
[1] Building level 14
[4] Building level 9
[4] Building level 10
[4] Building level 11
[4] Building level 12
[4] Building level 13
[4] Building level 14
Creating AMGLevel 
[0] Building level 4
Reconstruction on level 4
[5] Building level 4
Creating AMGLevel 
[0] Building level 5
Reconstruction on level 5
[5] Building level 5
Creating AMGLevel 
[0] Building level 6
Reconstruction on level 6
Creating AMGLevel 
[0] Building level 7
Reconstruction on level 7
[5] Building level 6
Creating AMGLevel 
[0] Building level 8
Reconstruction on level 8
Creating AMGLevel 
[0] Building level 9
Reconstruction on level 9
[5] Building level 7
Creating AMGLevel 
[0] Building level 10
Reconstruction on level 10
Creating AMGLevel 
[0] Building level 11
Reconstruction on level 11
Creating AMGLevel 
[0] Building level 12
Reconstruction on level 12
Creating AMGLevel 
[0] Building level 13
Reconstruction on level 13
Creating AMGLevel 
[0] Building level 14
Reconstruction on level 14
Creating AMGLevel 
14 Level construction complete
[5] Building level 8
[5] Building level 9
[5] Building level 10
[5] Building level 11
[5] Building level 12
[5] Building level 13
[5] Building level 14
initial dot_x = 7.22948e+09
Iter #1 residual = 0.0284243
Iter #2 residual = 0.0205129
Iter #3 residual = 0.0205481
Iter #4 residual = 0.0166859
Iter #5 residual = 0.0285471
Iter #6 residual = 0.0186172
Iter #7 residual = 0.0507392
Iter #8 residual = 0.0330892
Iter #9 residual = 0.0176402
Iter #10 residual = 0.0112457
Iter #11 residual = 0.0128357
Iter #12 residual = 0.0102162
Iter #13 residual = 0.0168013
Iter #14 residual = 0.0120855
Iter #15 residual = 0.0144687
Iter #16 residual = 0.0101173
Iter #17 residual = 0.0106738
Iter #18 residual = 0.00870601
Iter #19 residual = 0.0153855
Iter #20 residual = 0.00912167
Iter #21 residual = 0.0173376
Iter #22 residual = 0.0132353
Iter #23 residual = 0.022922
Iter #24 residual = 0.0214487
Iter #25 residual = 0.0195454
Iter #26 residual = 0.0121245
Iter #27 residual = 0.00602859
Iter #28 residual = 0.00585035
Iter #29 residual = 0.00540141
Iter #30 residual = 0.00523276
Iter #31 residual = 0.00646835
Iter #32 residual = 0.00456442
Iter #33 residual = 0.00504524
Iter #34 residual = 0.00448937
Iter #35 residual = 0.00624249
Iter #36 residual = 0.00414383
Iter #37 residual = 0.00173273
Iter #38 residual = 0.00782131
Iter #39 residual = 0.00561513
Iter #40 residual = 0.0125458
Iter #41 residual = 0.00824611
Iter #42 residual = 0.00506658
Iter #43 residual = 0.00271978
Iter #44 residual = 0.00820366
Iter #45 residual = 0.00471272
Iter #46 residual = 0.00265557
Iter #47 residual = 0.00244816
Iter #48 residual = 0.00202873
Iter #49 residual = 0.00332165
Iter #50 residual = 0.00209144
GPU: 50 iters: 8.63868 s: 2.52449 GB/s
GPUAMG:  Solving for pd, Initial residual = 0.0126533, Final residual = 0.00244349, No Iterations 50
[0] Building level 0
[2] Building level 0
[1] Building level 0
[4] Building level 0
[5] Building level 0
[3] Building level 0
[0] Building level 1
[1] Building level 1
[2] Building level 1
[4] Building level 1
[3] Building level 1
[5] Building level 1
[0] Building level 2
[4] Building level 2
[1] Building level 2
[2] Building level 2
[3] Building level 2
[5] Building level 2
[0] Building level 3
[4] Building level 3
[2] Building level 3
[1] Building level 3
[3] Building level 3
[5] Building level 3
[2] Building level 4
[0] Building level 4
[3] Building level 4
[1] Building level 4
[4] Building level 4
[5] Building level 4
[2] Building level 5
[0] Building level 5
[1] Building level 5
[3] Building level 5
[4] Building level 5
[2] Building level 6
[0] Building level 6
[1] Building level 6
[3] Building level 6
[5] Building level 5
[4] Building level 6
[2] Building level 7
[0] Building level 7
[1] Building level 7
[2] Building level 8
[3] Building level 7
[2] Building level 9
[0] Building level 8
[2] Building level 10
[4] Building level 7
[2] Building level 11
[1] Building level 8
[2] Building level 12
[2] Building level 13
[0] Building level 9
[2] Building level 14
[3] Building level 8
[0] Building level 10
[1] Building level 9
[0] Building level 11
[0] Building level 12
[0] Building level 13
[0] Building level 14
14 Level construction complete
[1] Building level 10
[3] Building level 9
[4] Building level 8
[1] Building level 11
[5] Building level 6
[1] Building level 12
[3] Building level 10
[1] Building level 13
[1] Building level 14
[3] Building level 11
[3] Building level 12
[3] Building level 13
[4] Building level 9
[3] Building level 14
[4] Building level 10
[4] Building level 11
[4] Building level 12
[4] Building level 13
[4] Building level 14
[5] Building level 7
[5] Building level 8
[5] Building level 9
[5] Building level 10
[5] Building level 11
[5] Building level 12
[5] Building level 13
[5] Building level 14
initial dot_x = 6.98697e+08
Iter #1 residual = 0.0085251
Iter #2 residual = 0.00608809
Iter #3 residual = 0.00501743
Iter #4 residual = 0.00442327
Iter #5 residual = 0.00298704
Iter #6 residual = 0.00331238
Iter #7 residual = 0.00510572
Iter #8 residual = 0.00392163
Iter #9 residual = 0.00658401
Iter #10 residual = 0.00447757
Iter #11 residual = 0.012499
Iter #12 residual = 0.00742186
Iter #13 residual = 0.00489306
Iter #14 residual = 0.00308473
Iter #15 residual = 0.00783419
Iter #16 residual = 0.00511476
Iter #17 residual = 0.0123942
Iter #18 residual = 0.00773119
Iter #19 residual = 0.00517988
Iter #20 residual = 0.0052742
Iter #21 residual = 0.00261392
Iter #22 residual = 0.00637331
Iter #23 residual = 0.00402854
Iter #24 residual = 0.00268624
Iter #25 residual = 0.00350187
Iter #26 residual = 0.00358865
Iter #27 residual = 0.00482802
Iter #28 residual = 0.00299117
Iter #29 residual = 0.0104106
Iter #30 residual = 0.00632341
Iter #31 residual = 0.00297843
Iter #32 residual = 0.00225453
Iter #33 residual = 0.00165519
Iter #34 residual = 0.00135987
Iter #35 residual = 0.00161455
Iter #36 residual = 0.00111468
Iter #37 residual = 0.00119035
Iter #38 residual = 0.00129263
Iter #39 residual = 0.00145273
Iter #40 residual = 0.0010831
Iter #41 residual = 0.00120211
Iter #42 residual = 0.0010552
Iter #43 residual = 0.00119814
Iter #44 residual = 0.00110978
Iter #45 residual = 0.00103716
Iter #46 residual = 0.0011698
Iter #47 residual = 0.00139021
Iter #48 residual = 0.00101106
Iter #49 residual = 0.00118474
Iter #50 residual = 0.00106156
GPU: 50 iters: 8.59356 s: 2.53775 GB/s
GPUAMG:  Solving for pd, Initial residual = 0.00784378, Final residual = 0.00107712, No Iterations 50
[2] Building level 0
[0] Building level 0
[1] Building level 0
[4] Building level 0
[5] Building level 0
[3] Building level 0
[0] Building level 1
[2] Building level 1
[1] Building level 1
[4] Building level 1
[3] Building level 1
[5] Building level 1
[0] Building level 2
[1] Building level 2
[4] Building level 2
[2] Building level 2
[3] Building level 2
[5] Building level 2
[0] Building level 3
[1] Building level 3
[2] Building level 3
[4] Building level 3
[3] Building level 3
[5] Building level 3
[0] Building level 4
[2] Building level 4
[1] Building level 4
[3] Building level 4
[4] Building level 4
[5] Building level 4
[0] Building level 5
[2] Building level 5
[1] Building level 5
[0] Building level 6
[2] Building level 6
[3] Building level 5
[4] Building level 5
[1] Building level 6
[0] Building level 7
[2] Building level 7
[5] Building level 5
[0] Building level 8
[2] Building level 8
[1] Building level 7
[0] Building level 9
[2] Building level 9
[0] Building level 10
[3] Building level 6
[0] Building level 11
[2] Building level 10
[0] Building level 12
[0] Building level 13
[0] Building level 14
[2] Building level 11
14 Level construction complete
[4] Building level 6
[2] Building level 12
[2] Building level 13
[2] Building level 14
[1] Building level 8
[1] Building level 9
[1] Building level 10
[1] Building level 11
[1] Building level 12
[1] Building level 13
[1] Building level 14
[3] Building level 7
[4] Building level 7
[5] Building level 6
[3] Building level 8
[4] Building level 8
[3] Building level 9
[3] Building level 10
[4] Building level 9
[3] Building level 11
[3] Building level 12
[3] Building level 13
[3] Building level 14
[4] Building level 10
[4] Building level 11
[4] Building level 12
[4] Building level 13
[4] Building level 14
[5] Building level 7
[5] Building level 8
[5] Building level 9
[5] Building level 10
[5] Building level 11
[5] Building level 12
[5] Building level 13
[5] Building level 14
initial dot_x = 270667
Iter #1 residual = 0.00880818
Iter #2 residual = 0.00765488
Iter #3 residual = 0.0168513
Iter #4 residual = 0.0099798
Iter #5 residual = 0.0104177
Iter #6 residual = 0.00806359
Iter #7 residual = 0.00379274
Iter #8 residual = 0.00714049
Iter #9 residual = 0.00511796
Iter #10 residual = 0.0019556
Iter #11 residual = 0.0069139
Iter #12 residual = 0.00495176
Iter #13 residual = 0.0184041
Iter #14 residual = 0.0106648
Iter #15 residual = 0.00420965
Iter #16 residual = 0.0101495
Iter #17 residual = 0.00617497
Iter #18 residual = 0.0140141
Iter #19 residual = 0.00937679
Iter #20 residual = 0.00799731
Iter #21 residual = 0.00467886
Iter #22 residual = 0.00241706
Iter #23 residual = 0.00325894
Iter #24 residual = 0.00162548
Iter #25 residual = 0.0040124
Iter #26 residual = 0.00268823
Iter #27 residual = 0.00249619
Iter #28 residual = 0.0020581
Iter #29 residual = 0.00185777
Iter #30 residual = 0.00169128
Iter #31 residual = 0.00248541
Iter #32 residual = 0.00290572
Iter #33 residual = 0.00280241
Iter #34 residual = 0.00147877
Iter #35 residual = 0.00160547
Iter #36 residual = 0.000867055
Iter #37 residual = 0.00161172
Iter #38 residual = 0.0010355
Iter #39 residual = 0.000749375
Iter #40 residual = 0.00123123
Iter #41 residual = 0.000866612
Iter #42 residual = 0.00122203
Iter #43 residual = 0.000837059
Iter #44 residual = 0.000586322
Iter #45 residual = 0.000408578
Iter #46 residual = 0.00035278
Iter #47 residual = 0.000457494
Iter #48 residual = 0.000355487
Iter #49 residual = 0.00110214
Iter #50 residual = 0.000808719
GPU: 50 iters: 8.63757 s: 2.52482 GB/s
GPUAMG:  Solving for pd, Initial residual = 0.00600824, Final residual = 0.0008226, No Iterations 50
time step continuity errors : sum local = 6.22815e-08, global = -2.23299e-08, cumulative = -6.35485e-08
ExecutionTime = 181.74 s  ClockTime = 195 s

Courant Number mean: 1.64485e-05 max: 0.136456 velocity magnitude: 1.06606
Time = 0.004

MULES: Solving for alpha1
Liquid phase volume fraction = 0.00275427  Min(alpha1) = -1.82093e-33  Max(alpha1) = 1
MULES: Solving for alpha1
Liquid phase volume fraction = 0.00275428  Min(alpha1) = -2.03334e-30  Max(alpha1) = 1
[0] Building level 0
[1] Building level 0
[2] Building level 0
[5] Building level 0
[3] Building level 0
[4] Building level 0
[2] Building level 1
[1] Building level 1
[0] Building level 1
Reconstruction on level 1
[4] Building level 1
[3] Building level 1
[5] Building level 1
[2] Building level 2
[3] Building level 2
[2] Building level 3
[3] Building level 3
[2] Building level 4
[3] Building level 4
[2] Building level 5
[3] Building level 5
Creating AMGLevel 
[1] Building level 2
[0] Building level 2
Reconstruction on level 2
[4] Building level 2
[5] Building level 2
[2] Building level 6
[3] Building level 6
[2] Building level 7
[3] Building level 7
[2] Building level 8
[3] Building level 8
[2] Building level 9
[2] Building level 10
[3] Building level 9
[2] Building level 11
[2] Building level 12
[2] Building level 13
[3] Building level 10
[2] Building level 14
[3] Building level 11
[3] Building level 12
[3] Building level 13
[3] Building level 14
Creating AMGLevel 
[1] Building level 3
[0] Building level 3
Reconstruction on level 3
[4] Building level 3
[5] Building level 3
Creating AMGLevel 
[0] Building level 4
Reconstruction on level 4
[1] Building level 4
[4] Building level 4
[5] Building level 4
Creating AMGLevel 
[0] Building level 5
Reconstruction on level 5
[1] Building level 5
[4] Building level 5
[5] Building level 5
Creating AMGLevel 
[1] Building level 6
[0] Building level 6
Reconstruction on level 6
[4] Building level 6
[5] Building level 6
Creating AMGLevel 
[0] Building level 7
Reconstruction on level 7
[1] Building level 7
Creating AMGLevel 
[0] Building level 8
Reconstruction on level 8
[1] Building level 8
[4] Building level 7
[5] Building level 7
Creating AMGLevel 
[0] Building level 9
Reconstruction on level 9
[1] Building level 9
Creating AMGLevel 
[0] Building level 10
Reconstruction on level 10
[1] Building level 10
[4] Building level 8
Creating AMGLevel 
[0] Building level 11
Reconstruction on level 11
[1] Building level 11
Creating AMGLevel 
[0] Building level 12
Reconstruction on level 12
[1] Building level 12
Creating AMGLevel 
[0] Building level 13
Reconstruction on level 13
[1] Building level 13
Creating AMGLevel 
[0] Building level 14
Reconstruction on level 14
[1] Building level 14
[5] Building level 8
Creating AMGLevel 
14 Level construction complete
[4] Building level 9
[4] Building level 10
[5] Building level 9
[4] Building level 11
[4] Building level 12
[5] Building level 10
[4] Building level 13
[4] Building level 14
[5] Building level 11
[5] Building level 12
[5] Building level 13
[5] Building level 14
initial dot_x = 2.10109e+09
Iter #1 residual = 0.0221789
Iter #2 residual = 0.0123992
Iter #3 residual = 0.010391
Iter #4 residual = 0.0121434
Iter #5 residual = 0.00793414
Iter #6 residual = 0.00997897
Iter #7 residual = 0.00731628
Iter #8 residual = 0.0238126
Iter #9 residual = 0.0143196
Iter #10 residual = 0.018501
Iter #11 residual = 0.0140372
Iter #12 residual = 0.012493
Iter #13 residual = 0.00961931
Iter #14 residual = 0.00935841
Iter #15 residual = 0.00628961
Iter #16 residual = 0.00663027
Iter #17 residual = 0.00431924
GMRES:  Solving for topLevelCorr, Initial residual = 0.857377, Final residual = 1.01333, No Iterations 200
Iter #18 residual = 0.00146726
GMRES:  Solving for topLevelCorr, Initial residual = 0.939451, Final residual = 1.26628, No Iterations 200
Iter #19 residual = 0.00327127
Iter #20 residual = 0.00558657
Iter #21 residual = 0.00344268
GMRES:  Solving for topLevelCorr, Initial residual = 0.881985, Final residual = 1.10149, No Iterations 200
Iter #22 residual = 0.00124584
GMRES:  Solving for topLevelCorr, Initial residual = 0.93557, Final residual = 1.23479, No Iterations 200
Iter #23 residual = 0.00244091
Iter #24 residual = 0.0056177
Iter #25 residual = 0.00570294
Iter #26 residual = 0.0219533
Iter #27 residual = 0.0128758
Iter #28 residual = 0.00811645
Iter #29 residual = 0.0215065
Iter #30 residual = 0.012331
Iter #31 residual = 0.00619845
Iter #32 residual = 0.00769553
Iter #33 residual = 0.00608764
Iter #34 residual = 0.00519538
Iter #35 residual = 0.0067267
Iter #36 residual = 0.0037428
Iter #37 residual = 0.00536505
Iter #38 residual = 0.0039864
Iter #39 residual = 0.00925269
Iter #40 residual = 0.00550637
Iter #41 residual = 0.00755231
Iter #42 residual = 0.00605803
Iter #43 residual = 0.0020201
Iter #44 residual = 0.00389041
Iter #45 residual = 0.00333273
Iter #46 residual = 0.00380399
Iter #47 residual = 0.00291837
Iter #48 residual = 0.00700271
Iter #49 residual = 0.00445512
Iter #50 residual = 0.00665156
GPU: 50 iters: 8.74964 s: 2.49248 GB/s
GPUAMG:  Solving for pd, Initial residual = 0.0137493, Final residual = 0.00559128, No Iterations 50
[0] Building level 0
[1] Building level 0
[2] Building level 0
[5] Building level 0
[3] Building level 0
[4] Building level 0
[0] Building level 1
[1] Building level 1
[2] Building level 1
[4] Building level 1
[3] Building level 1
[5] Building level 1
[1] Building level 2
[4] Building level 2
[0] Building level 2
[2] Building level 2
[3] Building level 2
[5] Building level 2
[1] Building level 3
[2] Building level 3
[0] Building level 3
[4] Building level 3
[3] Building level 3
[5] Building level 3
[1] Building level 4
[2] Building level 4
[0] Building level 4
[4] Building level 4
[3] Building level 4
[1] Building level 5
[5] Building level 4
[2] Building level 5
[0] Building level 5
[1] Building level 6
[4] Building level 5
[2] Building level 6
[3] Building level 5
[1] Building level 7
[2] Building level 7
[1] Building level 8
[5] Building level 5
[0] Building level 6
[2] Building level 8
[1] Building level 9
[1] Building level 10
[4] Building level 6
[1] Building level 11
[2] Building level 9
[1] Building level 12
[1] Building level 13
[1] Building level 14
[2] Building level 10
[2] Building level 11
[2] Building level 12
[2] Building level 13
[2] Building level 14
[0] Building level 7
[3] Building level 6
[4] Building level 7
[0] Building level 8
[0] Building level 9
[5] Building level 6
[4] Building level 8
[0] Building level 10
[0] Building level 11
[3] Building level 7
[0] Building level 12
[0] Building level 13
[0] Building level 14
14 Level construction complete
[4] Building level 9
[4] Building level 10
[4] Building level 11
[4] Building level 12
[4] Building level 13
[4] Building level 14
[3] Building level 8
[3] Building level 9
[5] Building level 7
[3] Building level 10
[3] Building level 11
[3] Building level 12
[3] Building level 13
[3] Building level 14
[5] Building level 8
[5] Building level 9
[5] Building level 10
[5] Building level 11
[5] Building level 12
[5] Building level 13
[5] Building level 14
initial dot_x = 4.15571e+08
Iter #1 residual = 0.00644729
Iter #2 residual = 0.00369951
Iter #3 residual = 0.00257088
Iter #4 residual = 0.00141875
Iter #5 residual = 0.00101461
Iter #6 residual = 0.00125116
GPU: 6 iters: 1.19367 s: 2.19239 GB/s
GPUAMG:  Solving for pd, Initial residual = 0.0134602, Final residual = 0.000631922, No Iterations 6
[2] Building level 0
[1] Building level 0
[0] Building level 0
[3] Building level 0
[5] Building level 0
[4] Building level 0
[1] Building level 1
[2] Building level 1
[0] Building level 1
[4] Building level 1
[3] Building level 1
[5] Building level 1
[1] Building level 2
[4] Building level 2
[0] Building level 2
[2] Building level 2
[3] Building level 2
[5] Building level 2
[1] Building level 3
[2] Building level 3
[4] Building level 3
[0] Building level 3
[3] Building level 3
[5] Building level 3
[1] Building level 4
[2] Building level 4
[4] Building level 4
[0] Building level 4
[3] Building level 4
[5] Building level 4
[1] Building level 5
[2] Building level 5
[4] Building level 5
[0] Building level 5
[1] Building level 6
[3] Building level 5
[2] Building level 6
[1] Building level 7
[5] Building level 5
[2] Building level 7
[4] Building level 6
[1] Building level 8
[0] Building level 6
[1] Building level 9
[2] Building level 8
[1] Building level 10
[1] Building level 11
[1] Building level 12
[2] Building level 9
[1] Building level 13
[1] Building level 14
[3] Building level 6
[2] Building level 10
[2] Building level 11
[2] Building level 12
[2] Building level 13
[4] Building level 7
[2] Building level 14
[0] Building level 7
[5] Building level 6
[4] Building level 8
[3] Building level 7
[4] Building level 9
[0] Building level 8
[4] Building level 10
[4] Building level 11
[4] Building level 12
[4] Building level 13
[4] Building level 14
[0] Building level 9
[3] Building level 8
[0] Building level 10
[0] Building level 11
[0] Building level 12
[0] Building level 13
[0] Building level 14
14 Level construction complete
[3] Building level 9
[5] Building level 7
[3] Building level 10
[3] Building level 11
[3] Building level 12
[3] Building level 13
[3] Building level 14
[5] Building level 8
[5] Building level 9
[5] Building level 10
[5] Building level 11
[5] Building level 12
[5] Building level 13
[5] Building level 14
initial dot_x = 3.48314e+08
Iter #1 residual = 0.0108968
Iter #2 residual = 0.00900885
Iter #3 residual = 0.00650401
Iter #4 residual = 0.00296465
Iter #5 residual = 0.00992312
Iter #6 residual = 0.006527
Iter #7 residual = 0.00448299
Iter #8 residual = 0.00319549
Iter #9 residual = 0.00207493
Iter #10 residual = 0.00202864
Iter #11 residual = 0.00179893
Iter #12 residual = 0.00285636
Iter #13 residual = 0.00195704
Iter #14 residual = 0.00682941
Iter #15 residual = 0.00395738
Iter #16 residual = 0.00292383
Iter #17 residual = 0.00246068
Iter #18 residual = 0.00164646
Iter #19 residual = 0.00166531
Iter #20 residual = 0.00143798
Iter #21 residual = 0.00192631
Iter #22 residual = 0.00153979
Iter #23 residual = 0.0017019
Iter #24 residual = 0.00147206
Iter #25 residual = 0.0018054
Iter #26 residual = 0.00151065
Iter #27 residual = 0.00180879
Iter #28 residual = 0.00129891
Iter #29 residual = 0.00217528
Iter #30 residual = 0.00149991
Iter #31 residual = 0.00140156
Iter #32 residual = 0.00202816
Iter #33 residual = 0.00175138
Iter #34 residual = 0.0011114
Iter #35 residual = 0.00122476
Iter #36 residual = 0.00139198
Iter #37 residual = 0.00151413
Iter #38 residual = 0.00105272
Iter #39 residual = 0.00370498
Iter #40 residual = 0.00232383
Iter #41 residual = 0.00129433
Iter #42 residual = 0.00181852
Iter #43 residual = 0.00120591
Iter #44 residual = 0.000660988
Iter #45 residual = 0.00086361
Iter #46 residual = 0.00101286
Iter #47 residual = 0.000932143
Iter #48 residual = 0.000900266
Iter #49 residual = 0.00095789
Iter #50 residual = 0.000814473
GPU: 50 iters: 8.693 s: 2.50872 GB/s
GPUAMG:  Solving for pd, Initial residual = 0.00841724, Final residual = 0.00133348, No Iterations 50
time step continuity errors : sum local = 6.99661e-08, global = -1.0522e-08, cumulative = -7.40705e-08
ExecutionTime = 231.87 s  ClockTime = 247 s

Courant Number mean: 1.98808e-05 max: 0.0537342 velocity magnitude: 0.419798
Time = 0.005

MULES: Solving for alpha1
Liquid phase volume fraction = 0.00275429  Min(alpha1) = -6.14581e-30  Max(alpha1) = 1
MULES: Solving for alpha1
Liquid phase volume fraction = 0.00275429  Min(alpha1) = -2.42575e-32  Max(alpha1) = 1
[0] Building level 0
[1] Building level 0
[2] Building level 0
[3] Building level 0
[5] Building level 0
[4] Building level 0
[1] Building level 1
[2] Building level 1
[0] Building level 1
Reconstruction on level 1
[3] Building level 1
[4] Building level 1
[5] Building level 1
[2] Building level 2
[3] Building level 2
[2] Building level 3
[3] Building level 3
[2] Building level 4
[3] Building level 4
[2] Building level 5
[3] Building level 5
Creating AMGLevel 
[0] Building level 2
Reconstruction on level 2
[4] Building level 2
[1] Building level 2
[5] Building level 2
[2] Building level 6
[3] Building level 6
[2] Building level 7
[3] Building level 7
[2] Building level 8
[3] Building level 8
[2] Building level 9
[3] Building level 9
[2] Building level 10
[2] Building level 11
[3] Building level 10
[2] Building level 12
[3] Building level 11
[2] Building level 13
[3] Building level 12
[2] Building level 14
[3] Building level 13
[3] Building level 14
Creating AMGLevel 
[0] Building level 3
Reconstruction on level 3
[1] Building level 3
[4] Building level 3
[5] Building level 3
Creating AMGLevel 
[0] Building level 4
Reconstruction on level 4
[1] Building level 4
[4] Building level 4
[5] Building level 4
Creating AMGLevel 
[0] Building level 5
Reconstruction on level 5
[1] Building level 5
[4] Building level 5
[5] Building level 5
Creating AMGLevel 
[0] Building level 6
Reconstruction on level 6
[1] Building level 6
[4] Building level 6
[5] Building level 6
Creating AMGLevel 
[0] Building level 7
Reconstruction on level 7
[1] Building level 7
[4] Building level 7
Creating AMGLevel 
[0] Building level 8
Reconstruction on level 8
[1] Building level 8
[5] Building level 7
Creating AMGLevel 
[0] Building level 9
Reconstruction on level 9
[1] Building level 9
[4] Building level 8
Creating AMGLevel 
[0] Building level 10
Reconstruction on level 10
[1] Building level 10
[5] Building level 8
Creating AMGLevel 
[0] Building level 11
Reconstruction on level 11
[1] Building level 11
Creating AMGLevel 
[0] Building level 12
Reconstruction on level 12
[1] Building level 12
[4] Building level 9
Creating AMGLevel 
[0] Building level 13
Reconstruction on level 13
[1] Building level 13
Creating AMGLevel 
[0] Building level 14
Reconstruction on level 14
[1] Building level 14
Creating AMGLevel 
14 Level construction complete
[5] Building level 9
[4] Building level 10
[4] Building level 11
[5] Building level 10
[4] Building level 12
[4] Building level 13
[5] Building level 11
[4] Building level 14
[5] Building level 12
[5] Building level 13
[5] Building level 14
initial dot_x = 2.3041e+09
Iter #1 residual = 0.0236345
Iter #2 residual = 0.0325333
Iter #3 residual = 0.0178584
Iter #4 residual = 0.0227917
Iter #5 residual = 0.0281865
Iter #6 residual = 0.0111364
Iter #7 residual = 0.0157693
Iter #8 residual = 0.00990747
Iter #9 residual = 0.0101739
Iter #10 residual = 0.00888872
Iter #11 residual = 0.00628567
Iter #12 residual = 0.00617877
Iter #13 residual = 0.0094278
Iter #14 residual = 0.00643427
Iter #15 residual = 0.0113878
Iter #16 residual = 0.00951383
Iter #17 residual = 0.00795542
Iter #18 residual = 0.00519833
Iter #19 residual = 0.00767923
Iter #20 residual = 0.00515006
Iter #21 residual = 0.00887893
Iter #22 residual = 0.00711526
Iter #23 residual = 0.00613326
Iter #24 residual = 0.00398132
Iter #25 residual = 0.00484482
Iter #26 residual = 0.00457912
Iter #27 residual = 0.00485675
Iter #28 residual = 0.00319491
Iter #29 residual = 0.00721022
Iter #30 residual = 0.00431242
Iter #31 residual = 0.0110747
Iter #32 residual = 0.0127701
Iter #33 residual = 0.00929747
Iter #34 residual = 0.00392919
Iter #35 residual = 0.00345687
Iter #36 residual = 0.00545039
Iter #37 residual = 0.00334742
Iter #38 residual = 0.00338684
Iter #39 residual = 0.00174201
Iter #40 residual = 0.00255981
Iter #41 residual = 0.00260477
Iter #42 residual = 0.00113653
Iter #43 residual = 0.00204987
Iter #44 residual = 0.00131163
Iter #45 residual = 0.00128321
Iter #46 residual = 0.000928293
Iter #47 residual = 0.00192563
Iter #48 residual = 0.00115089
Iter #49 residual = 0.00124606
Iter #50 residual = 0.00180703
GPU: 50 iters: 8.72549 s: 2.49938 GB/s
GPUAMG:  Solving for pd, Initial residual = 0.0130596, Final residual = 0.00111544, No Iterations 50
[1] Building level 0
[2] Building level 0
[0] Building level 0
[5] Building level 0
[4] Building level 0
[3] Building level 0
[1] Building level 1
[0] Building level 1
[3] Building level 1
[2] Building level 1
[4] Building level 1
[5] Building level 1
[0] Building level 2
[1] Building level 2
[2] Building level 2
[3] Building level 2
[4] Building level 2
[5] Building level 2
[0] Building level 3
[2] Building level 3
[3] Building level 3
[4] Building level 3
[1] Building level 3
[5] Building level 3
[2] Building level 4
[3] Building level 4
[0] Building level 4
[4] Building level 4
[1] Building level 4
[5] Building level 4
[2] Building level 5
[3] Building level 5
[0] Building level 5
[4] Building level 5
[2] Building level 6
[1] Building level 5
[5] Building level 5
[3] Building level 6
[2] Building level 7
[0] Building level 6
[4] Building level 6
[2] Building level 8
[3] Building level 7
[2] Building level 9
[2] Building level 10
[2] Building level 11
[2] Building level 12
[2] Building level 13
[2] Building level 14
[1] Building level 6
[3] Building level 8
[0] Building level 7
[3] Building level 9
[4] Building level 7
[5] Building level 6
[3] Building level 10
[3] Building level 11
[3] Building level 12
[0] Building level 8
[3] Building level 13
[3] Building level 14
[4] Building level 8
[0] Building level 9
[1] Building level 7
[0] Building level 10
[0] Building level 11
[4] Building level 9
[0] Building level 12
[0] Building level 13
[0] Building level 14
14 Level construction complete
[4] Building level 10
[5] Building level 7
[4] Building level 11
[4] Building level 12
[4] Building level 13
[4] Building level 14
[1] Building level 8
[1] Building level 9
[5] Building level 8
[1] Building level 10
[1] Building level 11
[1] Building level 12
[1] Building level 13
[1] Building level 14
[5] Building level 9
[5] Building level 10
[5] Building level 11
[5] Building level 12
[5] Building level 13
[5] Building level 14
initial dot_x = 1.4979e+09
Iter #1 residual = 0.00248786
Iter #2 residual = 0.0024541
Iter #3 residual = 0.00135759
Iter #4 residual = 0.00125788
Iter #5 residual = 0.000670338
Iter #6 residual = 0.000910107
Iter #7 residual = 0.00165022
Iter #8 residual = 0.00124512
Iter #9 residual = 0.000854984
Iter #10 residual = 0.000495258
Iter #11 residual = 0.000385365
GPU: 11 iters: 2.03909 s: 2.35293 GB/s
GPUAMG:  Solving for pd, Initial residual = 0.00760931, Final residual = 0.000349211, No Iterations 11
[1] Building level 0
[2] Building level 0
[0] Building level 0
[3] Building level 0
[5] Building level 0
[4] Building level 0
[0] Building level 1
[2] Building level 1
[1] Building level 1
[4] Building level 1
[3] Building level 1
[5] Building level 1
[0] Building level 2
[1] Building level 2
[2] Building level 2
[4] Building level 2
[3] Building level 2
[5] Building level 2
[0] Building level 3
[2] Building level 3
[1] Building level 3
[4] Building level 3
[3] Building level 3
[5] Building level 3
[2] Building level 4
[0] Building level 4
[3] Building level 4
[1] Building level 4
[4] Building level 4
[2] Building level 5
[5] Building level 4
[0] Building level 5
[2] Building level 6
[3] Building level 5
[1] Building level 5
[4] Building level 5
[2] Building level 7
[0] Building level 6
[2] Building level 8
[5] Building level 5
[2] Building level 9
[2] Building level 10
[3] Building level 6
[2] Building level 11
[2] Building level 12
[2] Building level 13
[2] Building level 14
[1] Building level 6
[0] Building level 7
[4] Building level 6
[0] Building level 8
[3] Building level 7
[1] Building level 7
[0] Building level 9
[0] Building level 10
[0] Building level 11
[0] Building level 12
[0] Building level 13
[0] Building level 14
[3] Building level 8
14 Level construction complete
[1] Building level 8
[5] Building level 6
[4] Building level 7
[3] Building level 9
[1] Building level 9
[3] Building level 10
[3] Building level 11
[1] Building level 10
[3] Building level 12
[3] Building level 13
[3] Building level 14
[1] Building level 11
[1] Building level 12
[1] Building level 13
[1] Building level 14
[4] Building level 8
[4] Building level 9
[5] Building level 7
[4] Building level 10
[4] Building level 11
[4] Building level 12
[4] Building level 13
[4] Building level 14
[5] Building level 8
[5] Building level 9
[5] Building level 10
[5] Building level 11
[5] Building level 12
[5] Building level 13
[5] Building level 14
initial dot_x = 1.28138e+09
Iter #1 residual = 0.00279209
Iter #2 residual = 0.00286121
Iter #3 residual = 0.00149976
Iter #4 residual = 0.00327811
Iter #5 residual = 0.00154896
Iter #6 residual = 0.00116
Iter #7 residual = 0.000925101
Iter #8 residual = 0.000695144
Iter #9 residual = 0.00134681
Iter #10 residual = 0.00083573
Iter #11 residual = 0.00133907
Iter #12 residual = 0.00113033
Iter #13 residual = 0.00132946
Iter #14 residual = 0.00103555
Iter #15 residual = 0.000614286
Iter #16 residual = 0.00040428
Iter #17 residual = 0.000988132
Iter #18 residual = 0.000653821
Iter #19 residual = 0.000958105
Iter #20 residual = 0.000529342
Iter #21 residual = 0.000737215
Iter #22 residual = 0.00055859
Iter #23 residual = 0.000549401
Iter #24 residual = 0.000402736
Iter #25 residual = 0.00019922
Iter #26 residual = 0.000549549
Iter #27 residual = 0.000315434
Iter #28 residual = 0.000396097
Iter #29 residual = 0.000377019
Iter #30 residual = 0.000202113
Iter #31 residual = 0.000213736
Iter #32 residual = 0.000175803
Iter #33 residual = 0.00028553
Iter #34 residual = 0.000186604
Iter #35 residual = 0.000254144
Iter #36 residual = 0.000137309
Iter #37 residual = 0.00021625
Iter #38 residual = 0.000130157
Iter #39 residual = 0.00019452
Iter #40 residual = 0.000226533
Iter #41 residual = 0.000106739
Iter #42 residual = 0.000235366
Iter #43 residual = 0.000171784
Iter #44 residual = 0.000217642
Iter #45 residual = 0.000118667
Iter #46 residual = 0.000336643
Iter #47 residual = 0.000201659
Iter #48 residual = 9.6389e-05
Iter #49 residual = 0.000105976
Iter #50 residual = 6.61185e-05
GPU: 50 iters: 8.72363 s: 2.49991 GB/s
GPUAMG:  Solving for pd, Initial residual = 0.00673611, Final residual = 0.000140902, No Iterations 50
time step continuity errors : sum local = 9.30998e-09, global = -2.48064e-09, cumulative = -7.65512e-08
ExecutionTime = 282.63 s  ClockTime = 299 s

Courant Number mean: 2.44076e-05 max: 0.0222051 velocity magnitude: 0.221289
Time = 0.006

MULES: Solving for alpha1
Liquid phase volume fraction = 0.00275429  Min(alpha1) = -1.1986e-29  Max(alpha1) = 1
MULES: Solving for alpha1
Liquid phase volume fraction = 0.00275429  Min(alpha1) = -1.30162e-31  Max(alpha1) = 1
[1] Building level 0
[0] Building level 0
[2] Building level 0
[3] Building level 0
[4] Building level 0
[5] Building level 0
[3] Building level 1
[4] Building level 1
[0] Building level 1
Reconstruction on level 1
[2] Building level 1
[1] Building level 1
[5] Building level 1
[3] Building level 2
[2] Building level 2
[3] Building level 3
[2] Building level 3
[3] Building level 4
[2] Building level 4
[3] Building level 5
[2] Building level 5
Creating AMGLevel 
[4] Building level 2
[5] Building level 2
[0] Building level 2
Reconstruction on level 2
[1] Building level 2
[3] Building level 6
[2] Building level 6
[3] Building level 7
[2] Building level 7
[3] Building level 8
[2] Building level 8
[3] Building level 9
[2] Building level 9
[3] Building level 10
[2] Building level 10
[3] Building level 11
[3] Building level 12
[2] Building level 11
[3] Building level 13
[2] Building level 12
[3] Building level 14
[2] Building level 13
[2] Building level 14
[5] Building level 3
[1] Building level 3
Creating AMGLevel 
[4] Building level 3
[0] Building level 3
Reconstruction on level 3
[5] Building level 4
[1] Building level 4
[4] Building level 4
Creating AMGLevel 
[0] Building level 4
Reconstruction on level 4
[5] Building level 5
[1] Building level 5
[4] Building level 5
Creating AMGLevel 
[0] Building level 5
Reconstruction on level 5
[5] Building level 6
[1] Building level 6
[4] Building level 6
Creating AMGLevel 
[0] Building level 6
Reconstruction on level 6
[5] Building level 7
[1] Building level 7
[4] Building level 7
Creating AMGLevel 
[0] Building level 7
Reconstruction on level 7
[5] Building level 8
[1] Building level 8
[4] Building level 8
Creating AMGLevel 
[0] Building level 8
Reconstruction on level 8
[5] Building level 9
[1] Building level 9
[5] Building level 10
[4] Building level 9
Creating AMGLevel 
[0] Building level 9
Reconstruction on level 9
[5] Building level 11
[1] Building level 10
[5] Building level 12
[4] Building level 10
[1] Building level 11
Creating AMGLevel 
[0] Building level 10
Reconstruction on level 10
[5] Building level 13
[1] Building level 12
[5] Building level 14
[4] Building level 11
Creating AMGLevel 
[0] Building level 11
Reconstruction on level 11
[1] Building level 13
[4] Building level 12
[1] Building level 14
Creating AMGLevel 
[0] Building level 12
Reconstruction on level 12
[4] Building level 13
Creating AMGLevel 
[0] Building level 13
Reconstruction on level 13
[4] Building level 14
Creating AMGLevel 
[0] Building level 14
Reconstruction on level 14
Creating AMGLevel 
14 Level construction complete
initial dot_x = 1.8959e+09
Iter #1 residual = 0.0356477
Iter #2 residual = 0.020163
Iter #3 residual = 0.0134633
Iter #4 residual = 0.0286193
Iter #5 residual = 0.0182434
Iter #6 residual = 0.0244859
Iter #7 residual = 0.0262987
Iter #8 residual = 0.0146928
Iter #9 residual = 0.0226348
Iter #10 residual = 0.0134052
Iter #11 residual = 0.0183715
Iter #12 residual = 0.0159007
Iter #13 residual = 0.0122067
Iter #14 residual = 0.00714289
Iter #15 residual = 0.00501175
Iter #16 residual = 0.0030292
Iter #17 residual = 0.00420554
Iter #18 residual = 0.00285656
Iter #19 residual = 0.00423332
Iter #20 residual = 0.00256132
Iter #21 residual = 0.0023943
Iter #22 residual = 0.00194011
Iter #23 residual = 0.00209536
Iter #24 residual = 0.00177372
Iter #25 residual = 0.00227559
Iter #26 residual = 0.00170234
Iter #27 residual = 0.00439569
Iter #28 residual = 0.00326963
Iter #29 residual = 0.00403436
Iter #30 residual = 0.0027939
Iter #31 residual = 0.00192269
Iter #32 residual = 0.0017773
Iter #33 residual = 0.0011938
Iter #34 residual = 0.00200738
Iter #35 residual = 0.00200383
Iter #36 residual = 0.000954062
Iter #37 residual = 0.00111821
Iter #38 residual = 0.00094201
Iter #39 residual = 0.00068781
GPU: 39 iters: 6.93359 s: 2.45334 GB/s
GPUAMG:  Solving for pd, Initial residual = 0.0137132, Final residual = 0.000528419, No Iterations 39
[1] Building level 0
[0] Building level 0
[2] Building level 0
[5] Building level 0
[3] Building level 0
[4] Building level 0
[0] Building level 1
[1] Building level 1
[2] Building level 1
[4] Building level 1
[3] Building level 1
[5] Building level 1
[0] Building level 2
[2] Building level 2
[1] Building level 2
[4] Building level 2
[3] Building level 2
[5] Building level 2
[0] Building level 3
[2] Building level 3
[1] Building level 3
[4] Building level 3
[3] Building level 3
[5] Building level 3
[2] Building level 4
[0] Building level 4
[1] Building level 4
[3] Building level 4
[4] Building level 4
[5] Building level 4
[2] Building level 5
[0] Building level 5
[3] Building level 5
[1] Building level 5
[4] Building level 5
[2] Building level 6
[0] Building level 6
[2] Building level 7
[3] Building level 6
[0] Building level 7
[5] Building level 5
[1] Building level 6
[2] Building level 8
[0] Building level 8
[4] Building level 6
[2] Building level 9
[0] Building level 9
[2] Building level 10
[2] Building level 11
[0] Building level 10
[2] Building level 12
[2] Building level 13
[3] Building level 7
[2] Building level 14
[0] Building level 11
[0] Building level 12
[0] Building level 13
[0] Building level 14
14 Level construction complete
[1] Building level 7
[3] Building level 8
[4] Building level 7
[1] Building level 8
[3] Building level 9
[3] Building level 10
[5] Building level 6
[3] Building level 11
[1] Building level 9
[3] Building level 12
[4] Building level 8
[3] Building level 13
[3] Building level 14
[1] Building level 10
[1] Building level 11
[1] Building level 12
[1] Building level 13
[1] Building level 14
[4] Building level 9
[4] Building level 10
[4] Building level 11
[4] Building level 12
[4] Building level 13
[4] Building level 14
[5] Building level 7
[5] Building level 8
[5] Building level 9
[5] Building level 10
[5] Building level 11
[5] Building level 12
[5] Building level 13
[5] Building level 14
initial dot_x = 1.01232e+09
Iter #1 residual = 0.00303039
Iter #2 residual = 0.00290998
Iter #3 residual = 0.00212647
Iter #4 residual = 0.00215528
Iter #5 residual = 0.00127659
Iter #6 residual = 0.00352183
Iter #7 residual = 0.00258116
Iter #8 residual = 0.000937561
Iter #9 residual = 0.00166449
Iter #10 residual = 0.00103613
Iter #11 residual = 0.000944666
Iter #12 residual = 0.000623511
Iter #13 residual = 0.000542703
Iter #14 residual = 0.000931608
Iter #15 residual = 0.00125649
Iter #16 residual = 0.000799114
Iter #17 residual = 0.00108191
Iter #18 residual = 0.000634201
Iter #19 residual = 0.000466891
Iter #20 residual = 0.000662423
Iter #21 residual = 0.00051072
GPU: 21 iters: 3.80285 s: 2.40859 GB/s
GPUAMG:  Solving for pd, Initial residual = 0.00659315, Final residual = 0.000247782, No Iterations 21
[1] Building level 0
[2] Building level 0
[0] Building level 0
[4] Building level 0
[5] Building level 0
[3] Building level 0
[1] Building level 1
[0] Building level 1
[2] Building level 1
[3] Building level 1
[4] Building level 1
[5] Building level 1
[0] Building level 2
[1] Building level 2
[2] Building level 2
[3] Building level 2
[4] Building level 2
[5] Building level 2
[0] Building level 3
[2] Building level 3
[1] Building level 3
[3] Building level 3
[4] Building level 3
[5] Building level 3
[0] Building level 4
[2] Building level 4
[1] Building level 4
[3] Building level 4
[4] Building level 4
[0] Building level 5
[2] Building level 5
[5] Building level 4
[1] Building level 5
[3] Building level 5
[0] Building level 6
[2] Building level 6
[2] Building level 7
[0] Building level 7
[1] Building level 6
[4] Building level 5
[2] Building level 8
[0] Building level 8
[3] Building level 6
[2] Building level 9
[0] Building level 9
[2] Building level 10
[0] Building level 10
[2] Building level 11
[5] Building level 5
[0] Building level 11
[2] Building level 12
[2] Building level 13
[2] Building level 14
[0] Building level 12
[0] Building level 13
[0] Building level 14
14 Level construction complete
[1] Building level 7
[1] Building level 8
[3] Building level 7
[1] Building level 9
[4] Building level 6
[1] Building level 10
[1] Building level 11
[1] Building level 12
[3] Building level 8
[1] Building level 13
[1] Building level 14
[3] Building level 9
[3] Building level 10
[3] Building level 11
[3] Building level 12
[3] Building level 13
[3] Building level 14
[5] Building level 6
[4] Building level 7
[4] Building level 8
[5] Building level 7
[4] Building level 9
[4] Building level 10
[4] Building level 11
[4] Building level 12
[4] Building level 13
[4] Building level 14
[5] Building level 8
[5] Building level 9
[5] Building level 10
[5] Building level 11
[5] Building level 12
[5] Building level 13
[5] Building level 14
initial dot_x = 5.59245e+08
Iter #1 residual = 0.00297134
Iter #2 residual = 0.00367972
Iter #3 residual = 0.00243834
Iter #4 residual = 0.00380437
Iter #5 residual = 0.0033907
Iter #6 residual = 0.00213645
Iter #7 residual = 0.00265983
Iter #8 residual = 0.00285778
Iter #9 residual = 0.00321398
Iter #10 residual = 0.00183198
Iter #11 residual = 0.00378446
Iter #12 residual = 0.00227474
Iter #13 residual = 0.00107732
Iter #14 residual = 0.0008648
Iter #15 residual = 0.00159765
Iter #16 residual = 0.00171989
Iter #17 residual = 0.00108743
Iter #18 residual = 0.000726662
Iter #19 residual = 0.00156084
Iter #20 residual = 0.00101689
Iter #21 residual = 0.00129321
Iter #22 residual = 0.000889142
Iter #23 residual = 0.00148056
Iter #24 residual = 0.000956851
Iter #25 residual = 0.000891009
Iter #26 residual = 0.000492042
Iter #27 residual = 0.00159328
Iter #28 residual = 0.00111843
Iter #29 residual = 0.000448313
Iter #30 residual = 0.000357281
Iter #31 residual = 0.000267912
Iter #32 residual = 0.000222521
Iter #33 residual = 0.000214031
Iter #34 residual = 0.000311403
Iter #35 residual = 0.000242294
Iter #36 residual = 0.000485077
Iter #37 residual = 0.000313377
Iter #38 residual = 0.000677574
Iter #39 residual = 0.000565188
Iter #40 residual = 0.000240204
Iter #41 residual = 0.000162439
Iter #42 residual = 0.000154583
Iter #43 residual = 0.00014066
Iter #44 residual = 0.000133598
Iter #45 residual = 0.000211936
Iter #46 residual = 0.000133147
Iter #47 residual = 0.000455796
Iter #48 residual = 0.000297464
Iter #49 residual = 0.000520878
Iter #50 residual = 0.000365063
GPU: 50 iters: 8.80381 s: 2.47715 GB/s
GPUAMG:  Solving for pd, Initial residual = 0.00659082, Final residual = 0.000107765, No Iterations 50
time step continuity errors : sum local = 5.28316e-09, global = 6.79802e-12, cumulative = -7.65444e-08
ExecutionTime = 333.56 s  ClockTime = 351 s

Courant Number mean: 2.93307e-05 max: 0.0204511 velocity magnitude: 0.159791
Time = 0.007

MULES: Solving for alpha1
Liquid phase volume fraction = 0.00275429  Min(alpha1) = -1.19894e-29  Max(alpha1) = 1
MULES: Solving for alpha1
Liquid phase volume fraction = 0.00275429  Min(alpha1) = -1.59097e-29  Max(alpha1) = 1
[0] Building level 0
[1] Building level 0
[2] Building level 0
[3] Building level 0
[4] Building level 0
[5] Building level 0
[0] Building level 1
Reconstruction on level 1
[2] Building level 1
[1] Building level 1
[4] Building level 1
[3] Building level 1
[5] Building level 1
[2] Building level 2
[3] Building level 2
[2] Building level 3
[3] Building level 3
[2] Building level 4
[3] Building level 4
[2] Building level 5
[3] Building level 5
[4] Building level 2
Creating AMGLevel 
[0] Building level 2
Reconstruction on level 2
[1] Building level 2
[5] Building level 2
[2] Building level 6
[3] Building level 6
[2] Building level 7
[3] Building level 7
[2] Building level 8
[3] Building level 8
[2] Building level 9
[3] Building level 9
[2] Building level 10
[2] Building level 11
[3] Building level 10
[2] Building level 12
[3] Building level 11
[2] Building level 13
[2] Building level 14
[3] Building level 12
[3] Building level 13
[3] Building level 14
[4] Building level 3
[1] Building level 3
Creating AMGLevel 
[5] Building level 3
[0] Building level 3
Reconstruction on level 3
[4] Building level 4
[1] Building level 4
Creating AMGLevel 
[5] Building level 4
[0] Building level 4
Reconstruction on level 4
[4] Building level 5
[1] Building level 5
Creating AMGLevel 
[0] Building level 5
Reconstruction on level 5
[5] Building level 5
[4] Building level 6
[1] Building level 6
Creating AMGLevel 
[0] Building level 6
Reconstruction on level 6
[5] Building level 6
[4] Building level 7
[1] Building level 7
Creating AMGLevel 
[0] Building level 7
Reconstruction on level 7
[5] Building level 7
[4] Building level 8
[1] Building level 8
Creating AMGLevel 
[0] Building level 8
Reconstruction on level 8
[4] Building level 9
[1] Building level 9
[5] Building level 8
[4] Building level 10
[1] Building level 10
[4] Building level 11
Creating AMGLevel 
[0] Building level 9
Reconstruction on level 9
[1] Building level 11
[4] Building level 12
[4] Building level 13
[1] Building level 12
[5] Building level 9
[4] Building level 14
[1] Building level 13
Creating AMGLevel 
[0] Building level 10
Reconstruction on level 10
[1] Building level 14
Creating AMGLevel 
[0] Building level 11
Reconstruction on level 11
[5] Building level 10
Creating AMGLevel 
[0] Building level 12
Reconstruction on level 12
[5] Building level 11
Creating AMGLevel 
[0] Building level 13
Reconstruction on level 13
Creating AMGLevel 
[0] Building level 14
Reconstruction on level 14
[5] Building level 12
Creating AMGLevel 
14 Level construction complete
[5] Building level 13
[5] Building level 14
initial dot_x = 1.40138e+09
Iter #1 residual = 0.0210102
Iter #2 residual = 0.0217677
Iter #3 residual = 0.016476
Iter #4 residual = 0.0135264
Iter #5 residual = 0.0188872
Iter #6 residual = 0.0138127
Iter #7 residual = 0.0145732
Iter #8 residual = 0.00806794
Iter #9 residual = 0.0209074
Iter #10 residual = 0.0108969
Iter #11 residual = 0.0364323
Iter #12 residual = 0.0143661
Iter #13 residual = 0.00855079
Iter #14 residual = 0.00403427
Iter #15 residual = 0.00410778
Iter #16 residual = 0.00342047
Iter #17 residual = 0.00333978
Iter #18 residual = 0.00350511
Iter #19 residual = 0.00324408
Iter #20 residual = 0.00367041
Iter #21 residual = 0.0044846
Iter #22 residual = 0.00253187
Iter #23 residual = 0.0056386
Iter #24 residual = 0.00420486
Iter #25 residual = 0.00374509
Iter #26 residual = 0.00243519
Iter #27 residual = 0.00736616
Iter #28 residual = 0.00385056
Iter #29 residual = 0.00796741
Iter #30 residual = 0.00676982
Iter #31 residual = 0.00415584
Iter #32 residual = 0.00564091
Iter #33 residual = 0.00327349
Iter #34 residual = 0.00804026
Iter #35 residual = 0.00481139
Iter #36 residual = 0.00609083
Iter #37 residual = 0.00294233
Iter #38 residual = 0.0077032
Iter #39 residual = 0.00491679
Iter #40 residual = 0.00252738
Iter #41 residual = 0.00152108
Iter #42 residual = 0.00200868
Iter #43 residual = 0.00130198
Iter #44 residual = 0.00283949
Iter #45 residual = 0.0017089
Iter #46 residual = 0.00506926
Iter #47 residual = 0.00348311
Iter #48 residual = 0.00495916
Iter #49 residual = 0.00245253
Iter #50 residual = 0.00211554
GPU: 50 iters: 8.78884 s: 2.48137 GB/s
GPUAMG:  Solving for pd, Initial residual = 0.0134136, Final residual = 0.00221215, No Iterations 50
[1] Building level 0
[0] Building level 0
[2] Building level 0
[4] Building level 0
[5] Building level 0
[3] Building level 0
[0] Building level 1
[2] Building level 1
[1] Building level 1
[4] Building level 1
[3] Building level 1
[5] Building level 1
[0] Building level 2
[1] Building level 2
[4] Building level 2
[2] Building level 2
[3] Building level 2
[5] Building level 2
[0] Building level 3
[1] Building level 3
[2] Building level 3
[4] Building level 3
[3] Building level 3
[5] Building level 3
[0] Building level 4
[1] Building level 4
[2] Building level 4
[3] Building level 4
[4] Building level 4
[5] Building level 4
[0] Building level 5
[1] Building level 5
[2] Building level 5
[3] Building level 5
[4] Building level 5
[0] Building level 6
[2] Building level 6
[1] Building level 6
[5] Building level 5
[0] Building level 7
[3] Building level 6
[2] Building level 7
[1] Building level 7
[0] Building level 8
[4] Building level 6
[2] Building level 8
[1] Building level 8
[0] Building level 9
[2] Building level 9
[0] Building level 10
[1] Building level 9
[0] Building level 11
[3] Building level 7
[0] Building level 12
[2] Building level 10
[0] Building level 13
[0] Building level 14
14 Level construction complete
[1] Building level 10
[2] Building level 11
[2] Building level 12
[2] Building level 13
[1] Building level 11
[2] Building level 14
[1] Building level 12
[1] Building level 13
[1] Building level 14
[4] Building level 7
[3] Building level 8
[5] Building level 6
[3] Building level 9
[4] Building level 8
[3] Building level 10
[3] Building level 11
[3] Building level 12
[3] Building level 13
[3] Building level 14
[4] Building level 9
[4] Building level 10
[4] Building level 11
[4] Building level 12
[4] Building level 13
[4] Building level 14
[5] Building level 7
[5] Building level 8
[5] Building level 9
[5] Building level 10
[5] Building level 11
[5] Building level 12
[5] Building level 13
[5] Building level 14
initial dot_x = 4.40188e+08
Iter #1 residual = 0.00476739
Iter #2 residual = 0.00264472
Iter #3 residual = 0.00252714
Iter #4 residual = 0.00172105
Iter #5 residual = 0.00279589
Iter #6 residual = 0.00166821
Iter #7 residual = 0.00391996
Iter #8 residual = 0.00293703
Iter #9 residual = 0.00256309
Iter #10 residual = 0.00141893
Iter #11 residual = 0.0036357
Iter #12 residual = 0.00183746
Iter #13 residual = 0.00400979
Iter #14 residual = 0.0026031
Iter #15 residual = 0.00152091
Iter #16 residual = 0.000934731
Iter #17 residual = 0.00157674
Iter #18 residual = 0.00102491
Iter #19 residual = 0.00239513
Iter #20 residual = 0.00182171
Iter #21 residual = 0.00239033
Iter #22 residual = 0.00168748
Iter #23 residual = 0.0019179
Iter #24 residual = 0.000979547
Iter #25 residual = 0.0021276
Iter #26 residual = 0.00240847
Iter #27 residual = 0.00115233
Iter #28 residual = 0.00120072
Iter #29 residual = 0.000601593
Iter #30 residual = 0.00179304
Iter #31 residual = 0.00142208
Iter #32 residual = 0.000748214
Iter #33 residual = 0.00149227
Iter #34 residual = 0.000882438
Iter #35 residual = 0.00203861
Iter #36 residual = 0.00177608
Iter #37 residual = 0.00283563
Iter #38 residual = 0.00117325
Iter #39 residual = 0.000726059
GPU: 39 iters: 6.91923 s: 2.45844 GB/s
GPUAMG:  Solving for pd, Initial residual = 0.00779462, Final residual = 0.000387173, No Iterations 39
[2] Building level 0
[1] Building level 0
[0] Building level 0
[3] Building level 0
[5] Building level 0
[4] Building level 0
[0] Building level 1
[1] Building level 1
[2] Building level 1
[3] Building level 1
[4] Building level 1
[5] Building level 1
[0] Building level 2
[1] Building level 2
[2] Building level 2
[3] Building level 2
[4] Building level 2
[5] Building level 2
[1] Building level 3
[0] Building level 3
[2] Building level 3
[3] Building level 3
[4] Building level 3
[5] Building level 3
[1] Building level 4
[0] Building level 4
[2] Building level 4
[3] Building level 4
[4] Building level 4
[5] Building level 4
[1] Building level 5
[2] Building level 5
[0] Building level 5
[3] Building level 5
[2] Building level 6
[1] Building level 6
[0] Building level 6
[4] Building level 5
[2] Building level 7
[3] Building level 6
[0] Building level 7
[1] Building level 7
[2] Building level 8
[5] Building level 5
[2] Building level 9
[0] Building level 8
[1] Building level 8
[2] Building level 10
[2] Building level 11
[2] Building level 12
[3] Building level 7
[1] Building level 9
[2] Building level 13
[0] Building level 9
[2] Building level 14
[4] Building level 6
[1] Building level 10
[0] Building level 10
[1] Building level 11
[0] Building level 11
[1] Building level 12
[0] Building level 12
[1] Building level 13
[1] Building level 14
[0] Building level 13
[0] Building level 14
14 Level construction complete
[3] Building level 8
[3] Building level 9
[3] Building level 10
[3] Building level 11
[3] Building level 12
[4] Building level 7
[3] Building level 13
[3] Building level 14
[5] Building level 6
[4] Building level 8
[4] Building level 9
[4] Building level 10
[4] Building level 11
[4] Building level 12
[4] Building level 13
[4] Building level 14
[5] Building level 7
[5] Building level 8
[5] Building level 9
[5] Building level 10
[5] Building level 11
[5] Building level 12
[5] Building level 13
[5] Building level 14
initial dot_x = 1.152e+09
Iter #1 residual = 0.000778612
Iter #2 residual = 0.000935965
Iter #3 residual = 0.000527427
Iter #4 residual = 0.000566658
Iter #5 residual = 0.000425647
Iter #6 residual = 0.000399731
Iter #7 residual = 0.000316836
Iter #8 residual = 0.000357867
Iter #9 residual = 0.000410354
Iter #10 residual = 0.000257908
Iter #11 residual = 0.000296872
Iter #12 residual = 0.000254928
Iter #13 residual = 0.000356196
Iter #14 residual = 0.000240915
Iter #15 residual = 0.000708933
Iter #16 residual = 0.000410521
Iter #17 residual = 0.00124112
Iter #18 residual = 0.000712438
Iter #19 residual = 0.000382172
Iter #20 residual = 0.000227536
Iter #21 residual = 0.000259832
Iter #22 residual = 0.0001739
Iter #23 residual = 0.000427286
Iter #24 residual = 0.000255494
[...]
Liquid phase volume fraction = 0.00275429  Min(alpha1) = -5.1062e-30  Max(alpha1) = 1
MULES: Solving for alpha1
Liquid phase volume fraction = 0.00275429  Min(alpha1) = -8.35561e-30  Max(alpha1) = 1
[0] Building level 0
[1] Building level 0
[2] Building level 0
[3] Building level 0
[4] Building level 0
[5] Building level 0
[0] Building level 1
[1] Building level 1
[2] Building level 1
[3] Building level 1
[4] Building level 1
[5] Building level 1
[2] Building level 2
[0] Building level 2
Reconstruction on level 2
[3] Building level 2
[2] Building level 3
[3] Building level 3
[2] Building level 4
[3] Building level 4
Creating AMGLevel 
[0] Building level 3
Reconstruction on level 3
[2] Building level 5
[3] Building level 5
[1] Building level 2
[5] Building level 2
[4] Building level 2
[2] Building level 6
Creating AMGLevel 
[3] Building level 6
[0] Building level 4
Reconstruction on level 4
[2] Building level 7
[3] Building level 7
[2] Building level 8
[3] Building level 8
[2] Building level 9
[3] Building level 9
[2] Building level 10
[2] Building level 11
[2] Building level 12
[3] Building level 10
[2] Building level 13
[3] Building level 11
[2] Building level 14
[3] Building level 12
[3] Building level 13
[3] Building level 14
Creating AMGLevel 
[0] Building level 5
Reconstruction on level 5
[1] Building level 3
[5] Building level 3
[4] Building level 3
Creating AMGLevel 
[0] Building level 6
Reconstruction on level 6
Creating AMGLevel 
[0] Building level 7
Reconstruction on level 7
Creating AMGLevel 
[0] Building level 8
Reconstruction on level 8
Creating AMGLevel 
[0] Building level 9
Reconstruction on level 9
Creating AMGLevel 
[0] Building level 10
Reconstruction on level 10
Creating AMGLevel 
[0] Building level 11
Reconstruction on level 11
Creating AMGLevel 
[0] Building level 12
Reconstruction on level 12
Creating AMGLevel 
[0] Building level 13
Reconstruction on level 13
Creating AMGLevel 
[0] Building level 14
Reconstruction on level 14
Creating AMGLevel 
14 Level construction complete
[1] Building level 4
[5] Building level 4
[4] Building level 4
[1] Building level 5
[5] Building level 5
[4] Building level 5
[1] Building level 6
[5] Building level 6
[4] Building level 6
[1] Building level 7
[5] Building level 7
[4] Building level 7
[1] Building level 8
[1] Building level 9
[5] Building level 8
[4] Building level 8
[1] Building level 10
[1] Building level 11
[1] Building level 12
[5] Building level 9
[1] Building level 13
[4] Building level 9
[1] Building level 14
[5] Building level 10
[4] Building level 10
[5] Building level 11
[4] Building level 11
[5] Building level 12
[4] Building level 12
[5] Building level 13
[4] Building level 13
[5] Building level 14
[4] Building level 14
initial dot_x = 7.64341e+08
Iter #1 residual = 0.0227999
Iter #2 residual = 0.0108291
Iter #3 residual = 0.0167382
Iter #4 residual = 0.0137738
Iter #5 residual = 0.0241619
Iter #6 residual = 0.0139502
Iter #7 residual = 0.00795002
Iter #8 residual = 0.00587001
Iter #9 residual = 0.00303007
Iter #10 residual = 0.00713419
Iter #11 residual = 0.00969051
Iter #12 residual = 0.00436653
Iter #13 residual = 0.00579326
Iter #14 residual = 0.00435902
Iter #15 residual = 0.0031685
Iter #16 residual = 0.00212458
Iter #17 residual = 0.00268719
Iter #18 residual = 0.00188756
Iter #19 residual = 0.00628096
Iter #20 residual = 0.00353949
Iter #21 residual = 0.00297078
Iter #22 residual = 0.00150632
Iter #23 residual = 0.00106736
Iter #24 residual = 0.00093549
Iter #25 residual = 0.000722744
GPU: 25 iters: 4.37685 s: 2.49133 GB/s
GPUAMG:  Solving for pd, Initial residual = 0.0137689, Final residual = 0.000474303, No Iterations 25
[2] Building level 0
[0] Building level 0
[1] Building level 0
[3] Building level 0
[4] Building level 0
[5] Building level 0
[0] Building level 1
[1] Building level 1
[2] Building level 1
[4] Building level 1
[3] Building level 1
[5] Building level 1
[0] Building level 2
[1] Building level 2
[2] Building level 2
[4] Building level 2
[3] Building level 2
[5] Building level 2
[2] Building level 3
[0] Building level 3
[1] Building level 3
[3] Building level 3
[4] Building level 3
[5] Building level 3
[2] Building level 4
[0] Building level 4
[3] Building level 4
[1] Building level 4
[4] Building level 4
[2] Building level 5
[5] Building level 4
[0] Building level 5
[2] Building level 6
[3] Building level 5
[1] Building level 5
[0] Building level 6
[2] Building level 7
[4] Building level 5
[2] Building level 8
[5] Building level 5
[0] Building level 7
[2] Building level 9
[3] Building level 6
[1] Building level 6
[2] Building level 10
[2] Building level 11
[2] Building level 12
[2] Building level 13
[2] Building level 14
[0] Building level 8
[0] Building level 9
[0] Building level 10
[0] Building level 11
[0] Building level 12
[0] Building level 13
[0] Building level 14
14 Level construction complete
[3] Building level 7
[1] Building level 7
[4] Building level 6
[5] Building level 6
[3] Building level 8
[1] Building level 8
[3] Building level 9
[1] Building level 9
[1] Building level 10
[3] Building level 10
[1] Building level 11
[3] Building level 11
[1] Building level 12
[3] Building level 12
[3] Building level 13
[1] Building level 13
[3] Building level 14
[1] Building level 14
[4] Building level 7
[5] Building level 7
[4] Building level 8
[5] Building level 8
[4] Building level 9
[5] Building level 9
[4] Building level 10
[4] Building level 11
[5] Building level 10
[4] Building level 12
[4] Building level 13
[4] Building level 14
[5] Building level 11
[5] Building level 12
[5] Building level 13
[5] Building level 14
initial dot_x = 5.79825e+08
Iter #1 residual = 0.00180875
Iter #2 residual = 0.00105277
Iter #3 residual = 0.000682475
Iter #4 residual = 0.000424631
Iter #5 residual = 0.000571013
Iter #6 residual = 0.000443259
GPU: 6 iters: 1.18128 s: 2.2154 GB/s
GPUAMG:  Solving for pd, Initial residual = 0.0062533, Final residual = 0.000278423, No Iterations 6
[2] Building level 0
[1] Building level 0
[0] Building level 0
[3] Building level 0
[4] Building level 0
[5] Building level 0
[2] Building level 1
[0] Building level 1
[1] Building level 1
[3] Building level 1
[4] Building level 1
[5] Building level 1
[0] Building level 2
[1] Building level 2
[2] Building level 2
[3] Building level 2
[4] Building level 2
[5] Building level 2
[2] Building level 3
[0] Building level 3
[1] Building level 3
[3] Building level 3
[4] Building level 3
[5] Building level 3
[2] Building level 4
[0] Building level 4
[3] Building level 4
[1] Building level 4
[4] Building level 4
[5] Building level 4
[2] Building level 5
[0] Building level 5
[3] Building level 5
[1] Building level 5
[2] Building level 6
[0] Building level 6
[4] Building level 5
[2] Building level 7
[5] Building level 5
[3] Building level 6
[2] Building level 8
[0] Building level 7
[2] Building level 9
[1] Building level 6
[2] Building level 10
[2] Building level 11
[0] Building level 8
[2] Building level 12
[3] Building level 7
[2] Building level 13
[2] Building level 14
[0] Building level 9
[0] Building level 10
[0] Building level 11
[3] Building level 8
[4] Building level 6
[0] Building level 12
[0] Building level 13
[0] Building level 14
14 Level construction complete
[1] Building level 7
[5] Building level 6
[3] Building level 9
[3] Building level 10
[3] Building level 11
[3] Building level 12
[3] Building level 13
[3] Building level 14
[1] Building level 8
[1] Building level 9
[4] Building level 7
[1] Building level 10
[1] Building level 11
[5] Building level 7
[1] Building level 12
[1] Building level 13
[1] Building level 14
[4] Building level 8
[5] Building level 8
[4] Building level 9
[4] Building level 10
[5] Building level 9
[4] Building level 11
[4] Building level 12
[4] Building level 13
[4] Building level 14
[5] Building level 10
[5] Building level 11
[5] Building level 12
[5] Building level 13
[5] Building level 14
initial dot_x = 6.29457e+08
Iter #1 residual = 0.000378448
Iter #2 residual = 0.000187402
Iter #3 residual = 0.000103345
Iter #4 residual = 7.07835e-05
Iter #5 residual = 4.55347e-05
Iter #6 residual = 3.37677e-05
Iter #7 residual = 4.47816e-05
Iter #8 residual = 2.74137e-05
Iter #9 residual = 1.76235e-05
Iter #10 residual = 1.09799e-05
Iter #11 residual = 8.12196e-06
Iter #12 residual = 6.20477e-06
Iter #13 residual = 6.05615e-06
Iter #14 residual = 4.53881e-06
Iter #15 residual = 1.10098e-05
Iter #16 residual = 6.72514e-06
Iter #17 residual = 4.53046e-06
Iter #18 residual = 2.69904e-06
Iter #19 residual = 2.4626e-06
Iter #20 residual = 1.58911e-06
Iter #21 residual = 2.05303e-06
Iter #22 residual = 1.33969e-06
Iter #23 residual = 3.1122e-06
Iter #24 residual = 5.00267e-06
Iter #25 residual = 2.61993e-06
Iter #26 residual = 3.20755e-06
Iter #27 residual = 2.23396e-06
Iter #28 residual = 1.27036e-06
Iter #29 residual = 1.672e-06
Iter #30 residual = 9.93945e-07
Iter #31 residual = 6.15699e-07
Iter #32 residual = 9.23094e-07
Iter #33 residual = 6.03425e-07
Iter #34 residual = 4.20154e-07
Iter #35 residual = 3.1943e-07
Iter #36 residual = 2.43965e-07
Iter #37 residual = 2.25526e-07
Iter #38 residual = 2.90573e-07
Iter #39 residual = 2.23952e-07
Iter #40 residual = 1.02215e-07
Iter #41 residual = 1.39396e-07
Iter #42 residual = 2.30881e-07
Iter #43 residual = 1.34716e-07
GMRES:  Solving for topLevelCorr, Initial residual = 0.807325, Final residual = 0.889219, No Iterations 200
GPU: 43 iters: 7.38213 s: 2.54062 GB/s
GPUAMG:  Solving for pd, Initial residual = 0.00593538, Final residual = 5.3118e-08, No Iterations 43
time step continuity errors : sum local = 4.24825e-12, global = 2.57288e-12, cumulative = -7.62431e-08
ExecutionTime = 476.48 s  ClockTime = 497 s

Courant Number mean: 4.46274e-05 max: 0.00971289 velocity magnitude: 0.149365
Time = 0.01

MULES: Solving for alpha1
Liquid phase volume fraction = 0.00275429  Min(alpha1) = -1.22721e-29  Max(alpha1) = 1
MULES: Solving for alpha1
Liquid phase volume fraction = 0.00275429  Min(alpha1) = -3.17338e-29  Max(alpha1) = 1
[2] Building level 0
[0] Building level 0
[1] Building level 0
[4] Building level 0
[5] Building level 0
[3] Building level 0
[2] Building level 1
[1] Building level 1
[0] Building level 1
Reconstruction on level 1
[4] Building level 1
[3] Building level 1
[5] Building level 1
[2] Building level 2
[4] Building level 2
[3] Building level 2
[2] Building level 3
[3] Building level 3
[2] Building level 4
[3] Building level 4
[4] Building level 3
[2] Building level 5
[3] Building level 5
[1] Building level 2
Creating AMGLevel 
[0] Building level 2
Reconstruction on level 2
[5] Building level 2
[2] Building level 6
[4] Building level 4
[3] Building level 6
[2] Building level 7
[3] Building level 7
[2] Building level 8
[3] Building level 8
[2] Building level 9
[2] Building level 10
[2] Building level 11
[3] Building level 9
[2] Building level 12
[2] Building level 13
[2] Building level 14
[3] Building level 10
[3] Building level 11
[3] Building level 12
[3] Building level 13
[3] Building level 14
[4] Building level 5
[1] Building level 3
Creating AMGLevel 
[0] Building level 3
Reconstruction on level 3
[4] Building level 6
[5] Building level 3
[4] Building level 7
[4] Building level 8
[4] Building level 9
[4] Building level 10
[4] Building level 11
[4] Building level 12
[4] Building level 13
[4] Building level 14
[1] Building level 4
Creating AMGLevel 
[0] Building level 4
Reconstruction on level 4
[5] Building level 4
[1] Building level 5
Creating AMGLevel 
[0] Building level 5
Reconstruction on level 5
[5] Building level 5
[1] Building level 6
Creating AMGLevel 
[0] Building level 6
Reconstruction on level 6
[5] Building level 6
[1] Building level 7
Creating AMGLevel 
[0] Building level 7
Reconstruction on level 7
[1] Building level 8
[5] Building level 7
[1] Building level 9
Creating AMGLevel 
[0] Building level 8
Reconstruction on level 8
[1] Building level 10
[1] Building level 11
[5] Building level 8
[1] Building level 12
Creating AMGLevel 
[0] Building level 9
Reconstruction on level 9
[1] Building level 13
[1] Building level 14
Creating AMGLevel 
[0] Building level 10
Reconstruction on level 10
[5] Building level 9
Creating AMGLevel 
[0] Building level 11
Reconstruction on level 11
Creating AMGLevel 
[0] Building level 12
Reconstruction on level 12
[5] Building level 10
Creating AMGLevel 
[0] Building level 13
Reconstruction on level 13
Creating AMGLevel 
[0] Building level 14
Reconstruction on level 14
[5] Building level 11
Creating AMGLevel 
14 Level construction complete
[5] Building level 12
[5] Building level 13
[5] Building level 14
initial dot_x = 6.35288e+08
Iter #1 residual = 0.0218837
Iter #2 residual = 0.0219694
Iter #3 residual = 0.0240609
Iter #4 residual = 0.00968717
Iter #5 residual = 0.00648266
Iter #6 residual = 0.00405448
Iter #7 residual = 0.00325398
Iter #8 residual = 0.00282794
Iter #9 residual = 0.00174089
Iter #10 residual = 0.00110564
Iter #11 residual = 0.00196108
Iter #12 residual = 0.00170405
Iter #13 residual = 0.00208033
Iter #14 residual = 0.00285013
Iter #15 residual = 0.00142102
Iter #16 residual = 0.00471488
Iter #17 residual = 0.00333906
Iter #18 residual = 0.00626567
Iter #19 residual = 0.00307227
Iter #20 residual = 0.00315225
Iter #21 residual = 0.00215947
Iter #22 residual = 0.00111854
Iter #23 residual = 0.00132717
Iter #24 residual = 0.00114308
Iter #25 residual = 0.00181404
Iter #26 residual = 0.00347229
Iter #27 residual = 0.00203976
Iter #28 residual = 0.00368148
Iter #29 residual = 0.00238015
Iter #30 residual = 0.00143141
Iter #31 residual = 0.000768769
Iter #32 residual = 0.0019438
Iter #33 residual = 0.00123232
GPU: 33 iters: 5.78126 s: 2.48968 GB/s
GPUAMG:  Solving for pd, Initial residual = 0.0143534, Final residual = 0.000521859, No Iterations 33
[2] Building level 0
[0] Building level 0
[1] Building level 0
[4] Building level 0
[3] Building level 0
[5] Building level 0
[0] Building level 1
[1] Building level 1
[2] Building level 1
[3] Building level 1
[4] Building level 1
[5] Building level 1
[0] Building level 2
[1] Building level 2
[2] Building level 2
[3] Building level 2
[4] Building level 2
[5] Building level 2
[0] Building level 3
[2] Building level 3
[1] Building level 3
[3] Building level 3
[4] Building level 3
[5] Building level 3
[0] Building level 4
[2] Building level 4
[1] Building level 4
[3] Building level 4
[0] Building level 5
[5] Building level 4
[4] Building level 4
[2] Building level 5
[1] Building level 5
[0] Building level 6
[3] Building level 5
[2] Building level 6
[0] Building level 7
[1] Building level 6
[0] Building level 8
[5] Building level 5
[4] Building level 5
[0] Building level 9
[2] Building level 7
[0] Building level 10
[1] Building level 7
[0] Building level 11
[0] Building level 12
[0] Building level 13
[0] Building level 14
14 Level construction complete
[2] Building level 8
[1] Building level 8
[3] Building level 6
[2] Building level 9
[2] Building level 10
[1] Building level 9
[2] Building level 11
[2] Building level 12
[2] Building level 13
[1] Building level 10
[2] Building level 14
[1] Building level 11
[1] Building level 12
[1] Building level 13
[1] Building level 14
[5] Building level 6
[4] Building level 6
[3] Building level 7
[3] Building level 8
[3] Building level 9
[5] Building level 7
[3] Building level 10
[4] Building level 7
[3] Building level 11
[3] Building level 12
[3] Building level 13
[3] Building level 14
[5] Building level 8
[4] Building level 8
[5] Building level 9
[5] Building level 10
[4] Building level 9
[5] Building level 11
[5] Building level 12
[5] Building level 13
[4] Building level 10
[5] Building level 14
[4] Building level 11
[4] Building level 12
[4] Building level 13
[4] Building level 14
initial dot_x = 4.60242e+08
Iter #1 residual = 0.00203978
Iter #2 residual = 0.00104834
Iter #3 residual = 0.000660249
Iter #4 residual = 0.000393821
Iter #5 residual = 0.000310091
Iter #6 residual = 0.00042487
GPU: 6 iters: 1.18193 s: 2.21418 GB/s
GPUAMG:  Solving for pd, Initial residual = 0.00608749, Final residual = 0.000257817, No Iterations 6
[1] Building level 0
[2] Building level 0
[0] Building level 0
[4] Building level 0
[3] Building level 0
[5] Building level 0
[1] Building level 1
[0] Building level 1
[4] Building level 1
[2] Building level 1
[3] Building level 1
[5] Building level 1
[1] Building level 2
[0] Building level 2
[2] Building level 2
[4] Building level 2
[3] Building level 2
[5] Building level 2
[0] Building level 3
[1] Building level 3
[2] Building level 3
[3] Building level 3
[4] Building level 3
[5] Building level 3
[0] Building level 4
[1] Building level 4
[2] Building level 4
[3] Building level 4
[5] Building level 4
[4] Building level 4
[0] Building level 5
[1] Building level 5
[2] Building level 5
[3] Building level 5
[0] Building level 6
[5] Building level 5
[4] Building level 5
[1] Building level 6
[2] Building level 6
[0] Building level 7
[3] Building level 6
[1] Building level 7
[0] Building level 8
[0] Building level 9
[1] Building level 8
[0] Building level 10
[2] Building level 7
[0] Building level 11
[0] Building level 12
[0] Building level 13
[1] Building level 9
[0] Building level 14
14 Level construction complete
[5] Building level 6
[1] Building level 10
[3] Building level 7
[4] Building level 6
[1] Building level 11
[1] Building level 12
[1] Building level 13
[1] Building level 14
[2] Building level 8
[3] Building level 8
[2] Building level 9
[2] Building level 10
[2] Building level 11
[3] Building level 9
[2] Building level 12
[2] Building level 13
[2] Building level 14
[5] Building level 7
[3] Building level 10
[3] Building level 11
[4] Building level 7
[3] Building level 12
[3] Building level 13
[3] Building level 14
[5] Building level 8
[4] Building level 8
[5] Building level 9
[5] Building level 10
[4] Building level 9
[5] Building level 11
[5] Building level 12
[5] Building level 13
[5] Building level 14
[4] Building level 10
[4] Building level 11
[4] Building level 12
[4] Building level 13
[4] Building level 14
initial dot_x = 5.36834e+08
Iter #1 residual = 0.000356398
Iter #2 residual = 0.000175824
Iter #3 residual = 0.000201164
Iter #4 residual = 0.00011904
Iter #5 residual = 0.00010153
Iter #6 residual = 5.50998e-05
Iter #7 residual = 4.45079e-05
Iter #8 residual = 3.21636e-05
Iter #9 residual = 3.59107e-05
Iter #10 residual = 2.50288e-05
Iter #11 residual = 1.15179e-05
Iter #12 residual = 2.18104e-05
Iter #13 residual = 1.73499e-05
Iter #14 residual = 1.01721e-05
Iter #15 residual = 1.09048e-05
Iter #16 residual = 1.12598e-05
Iter #17 residual = 1.09662e-05
Iter #18 residual = 1.34986e-05
Iter #19 residual = 5.21911e-05
Iter #20 residual = 3.38244e-05
Iter #21 residual = 2.0357e-05
Iter #22 residual = 2.59102e-05
Iter #23 residual = 2.87401e-05
Iter #24 residual = 1.88443e-05
Iter #25 residual = 1.75786e-05
Iter #26 residual = 1.59534e-05
Iter #27 residual = 1.44133e-05
Iter #28 residual = 1.65608e-05
Iter #29 residual = 1.39131e-05
Iter #30 residual = 2.55479e-05
Iter #31 residual = 1.93683e-05
Iter #32 residual = 1.53314e-05
Iter #33 residual = 2.61733e-05
Iter #34 residual = 3.51775e-05
Iter #35 residual = 2.16751e-05
Iter #36 residual = 8.71259e-06
Iter #37 residual = 8.16932e-06
Iter #38 residual = 9.6559e-06
Iter #39 residual = 5.31482e-06
Iter #40 residual = 3.65338e-06
Iter #41 residual = 2.12852e-06
Iter #42 residual = 1.56384e-06
Iter #43 residual = 1.36521e-06
Iter #44 residual = 1.4054e-06
Iter #45 residual = 1.49231e-06
Iter #46 residual = 3.40431e-06
Iter #47 residual = 2.02353e-06
Iter #48 residual = 1.23071e-06
Iter #49 residual = 9.05484e-07
Iter #50 residual = 1.32501e-06
GPU: 50 iters: 8.59962 s: 2.53596 GB/s
GPUAMG:  Solving for pd, Initial residual = 0.00599704, Final residual = 9.35973e-07, No Iterations 50
time step continuity errors : sum local = 8.30434e-11, global = -4.22497e-11, cumulative = -7.62853e-08
ExecutionTime = 522.95 s  ClockTime = 545 s

End

Finalising parallel run
