 Data for JOB [18182,1] offset 0

 ========================   JOB MAP   ========================

 Data for node: ivb112	Num slots: 2	Max slots: 0	Num procs: 2
 	Process OMPI jobid: [18182,1] App: 0 Process rank: 0
 	Process OMPI jobid: [18182,1] App: 0 Process rank: 1

 Data for node: ivb113	Num slots: 2	Max slots: 0	Num procs: 2
 	Process OMPI jobid: [18182,1] App: 0 Process rank: 2
 	Process OMPI jobid: [18182,1] App: 0 Process rank: 3

 =============================================================
[ivb112:06384] MCW rank 0 bound to socket 0[core 0[hwt 0]]: [B/././././././././.][./././././././././.]
[ivb112:06384] MCW rank 1 bound to socket 0[core 1[hwt 0]]: [./B/./././././././.][./././././././././.]
[ivb113:17740] MCW rank 3 bound to socket 0[core 1[hwt 0]]: [./B/./././././././.][./././././././././.]
[ivb113:17740] MCW rank 2 bound to socket 0[core 0[hwt 0]]: [B/././././././././.][./././././././././.]
1
0
1
0
/*---------------------------------------------------------------------------*\
| =========                 |                                                 |
| \\      /  F ield         | foam-extend: Open Source CFD                    |
|  \\    /   O peration     | Version:     3.1                                |
|   \\  /    A nd           | Web:         http://www.extend-project.de       |
|    \\/     M anipulation  |                                                 |
\*---------------------------------------------------------------------------*/
Build    : 3.1-e2da948002a2
Exec     : interFoam -parallel
Date     : May 26 2016
Time     : 04:01:12
Host     : ivb112
PID      : 6413
CtrlDict : /home-2/vplatonov/foam/foam-extend-3.1/etc/controlDict
Case     : /home/vplatonov/tests/rt12mln
nProcs   : 4
Slaves : 
3
(
ivb112.6411
ivb113.17761
ivb113.17763
)

Pstream initialized with:
    floatTransfer     : 0
    nProcsSimpleSum   : 0
    commsType         : blocking
SigFpe   : Enabling floating point exception trapping (FOAM_SIGFPE).

// * * * * * * * * * * * * * * * * * * * * * * * * * * * * * * * * * * * * * //
Create time

Create mesh for time = 0


Reading g
Reading field pd

Reading field alpha1

Reading field U

Reading/calculating face flux field phi

Reading transportProperties

Selecting incompressible transport model Newtonian
Selecting incompressible transport model Newtonian
Calculating field g.h

Selecting turbulence model type laminar
time step continuity errors : sum local = 0, global = 0, cumulative = 0
[2] Building level 0
[3] Building level 0
Created persistent data with name pcorr
[0] Building level 0
[1] Building level 0
[2] Building level 1
[3] Building level 1
Creating AMGLevel 
[1] Building level 1
[0] Building level 1
[2] Building level 2
[3] Building level 2
Creating AMGLevel 
[0] Building level 2
[1] Building level 2
[2] Building level 3
[3] Building level 3
[1] Building level 3
Creating AMGLevel 
[0] Building level 3
[2] Building level 4
[3] Building level 4
[1] Building level 4
Creating AMGLevel 
[0] Building level 4
[2] Building level 5
[3] Building level 5
[1] Building level 5
Creating AMGLevel 
[2] Building level 6
[0] Building level 5
[3] Building level 6
[2] Building level 7
[1] Building level 6
[2] Building level 8
[3] Building level 7
Creating AMGLevel 
[0] Building level 6
[2] Building level 9
[2] Building level 10
[3] Building level 8
[2] Building level 11
[2] Building level 12
[2] Building level 13
[2] Building level 14
[1] Building level 7
[3] Building level 9
[3] Building level 10
[3] Building level 11
Creating AMGLevel 
[0] Building level 7
[3] Building level 12
[3] Building level 13
[3] Building level 14
[1] Building level 8
[1] Building level 9
Creating AMGLevel 
[0] Building level 8
[1] Building level 10
[1] Building level 11
Creating AMGLevel 
[0] Building level 9
[1] Building level 12
[1] Building level 13
[1] Building level 14
Creating AMGLevel 
[0] Building level 10
Creating AMGLevel 
[0] Building level 11
Creating AMGLevel 
[0] Building level 12
Creating AMGLevel 
[0] Building level 13
Creating AMGLevel 
[0] Building level 14
Creating AMGLevel 
14 Level construction complete
PCGAMG:  Solving for pcorr, Initial residual = 0, Final residual = 0, No Iterations 0
time step continuity errors : sum local = 0, global = 0, cumulative = 0
Courant Number mean: 0 max: 0 velocity magnitude: 0

Starting time loop

Courant Number mean: 0 max: 0 velocity magnitude: 0
Time = 0.001

MULES: Solving for alpha1
Liquid phase volume fraction = 0.00275421  Min(alpha1) = 0  Max(alpha1) = 1
MULES: Solving for alpha1
Liquid phase volume fraction = 0.00275421  Min(alpha1) = 0  Max(alpha1) = 1
[2] Building level 0
[3] Building level 0
[1] Building level 0
Created persistent data with name pd
[0] Building level 0
[3] Building level 1
[2] Building level 1
Creating AMGLevel 
[1] Building level 1
[0] Building level 1
[2] Building level 2
[3] Building level 2
Creating AMGLevel 
[0] Building level 2
[1] Building level 2
[3] Building level 3
[2] Building level 3
Creating AMGLevel 
[0] Building level 3
[1] Building level 3
[2] Building level 4
[3] Building level 4
Creating AMGLevel 
[0] Building level 4
[1] Building level 4
[2] Building level 5
[3] Building level 5
Creating AMGLevel 
[0] Building level 5
[1] Building level 5
[2] Building level 6
[3] Building level 6
Creating AMGLevel 
[0] Building level 6
[1] Building level 6
[2] Building level 7
[3] Building level 7
Creating AMGLevel 
[0] Building level 7
[2] Building level 8
[3] Building level 8
[1] Building level 7
[3] Building level 9
[2] Building level 9
Creating AMGLevel 
[0] Building level 8
[3] Building level 10
[2] Building level 10
[3] Building level 11
[1] Building level 8
[2] Building level 11
[3] Building level 12
[2] Building level 12
[2] Building level 13
[3] Building level 13
Creating AMGLevel 
[0] Building level 9
[3] Building level 14
[2] Building level 14
[1] Building level 9
Creating AMGLevel 
[0] Building level 10
Creating AMGLevel 
[0] Building level 11
Creating AMGLevel 
[0] Building level 12
[1] Building level 10
Creating AMGLevel 
[0] Building level 13
Creating AMGLevel 
[0] Building level 14
[1] Building level 11
Creating AMGLevel 
14 Level construction complete
[1] Building level 12
[1] Building level 13
[1] Building level 14
GPU: 1 iters: 0.438966 s: 1.49086 GB/s
PCGAMG:  Solving for pd, Initial residual = 1, Final residual = 0.0347812, No Iterations 1
[0] Building level 0
[1] Building level 0
[2] Building level 0
[3] Building level 0
[0] Building level 1
[2] Building level 1
[1] Building level 1
[3] Building level 1
[0] Building level 2
[2] Building level 2
[1] Building level 2
[3] Building level 2
[0] Building level 3
[2] Building level 3
[1] Building level 3
[3] Building level 3
[0] Building level 4
[2] Building level 4
[1] Building level 4
[3] Building level 4
[0] Building level 5
[1] Building level 5
[2] Building level 5
[3] Building level 5
[0] Building level 6
[1] Building level 6
[2] Building level 6
[3] Building level 6
[0] Building level 7
[1] Building level 7
[2] Building level 7
[3] Building level 7
[0] Building level 8
[1] Building level 8
[2] Building level 8
[0] Building level 9
[3] Building level 8
[1] Building level 9
[0] Building level 10
[1] Building level 10
[2] Building level 9
[0] Building level 11
[0] Building level 12
[1] Building level 11
[3] Building level 9
[0] Building level 13
[0] Building level 14
[1] Building level 12
14 Level construction complete
[1] Building level 13
[1] Building level 14
[2] Building level 10
[3] Building level 10
[2] Building level 11
[2] Building level 12
[3] Building level 11
[2] Building level 13
[2] Building level 14
[3] Building level 12
[3] Building level 13
[3] Building level 14
GPU: 3 iters: 0.868903 s: 2.25953 GB/s
PCGAMG:  Solving for pd, Initial residual = 0.0222779, Final residual = 0.000979579, No Iterations 3
[1] Building level 0
[0] Building level 0
[2] Building level 0
[3] Building level 0
[2] Building level 1
[3] Building level 1
[0] Building level 1
[1] Building level 1
[2] Building level 2
[3] Building level 2
[0] Building level 2
[1] Building level 2
[3] Building level 3
[2] Building level 3
[0] Building level 3
[1] Building level 3
[3] Building level 4
[2] Building level 4
[0] Building level 4
[1] Building level 4
[2] Building level 5
[3] Building level 5
[0] Building level 5
[1] Building level 5
[2] Building level 6
[3] Building level 6
[3] Building level 7
[2] Building level 7
[0] Building level 6
[1] Building level 6
[2] Building level 8
[3] Building level 8
[2] Building level 9
[3] Building level 9
[2] Building level 10
[3] Building level 10
[3] Building level 11
[2] Building level 11
[2] Building level 12
[3] Building level 12
[2] Building level 13
[3] Building level 13
[2] Building level 14
[3] Building level 14
[0] Building level 7
[1] Building level 7
[0] Building level 8
[1] Building level 8
[0] Building level 9
[1] Building level 9
[0] Building level 10
[1] Building level 10
[0] Building level 11
[1] Building level 11
[0] Building level 12
[1] Building level 12
[0] Building level 13
[0] Building level 14
[1] Building level 13
14 Level construction complete
[1] Building level 14
GPU: 16 iters: 3.6964 s: 2.83276 GB/s
PCGAMG:  Solving for pd, Initial residual = 0.0056287, Final residual = 9.04797e-08, No Iterations 16
time step continuity errors : sum local = 6.73041e-12, global = 2.39817e-24, cumulative = 2.39817e-24
ExecutionTime = 125.56 s  ClockTime = 137 s

Courant Number mean: 4.86857e-06 max: 0.00215808 velocity magnitude: 0.03372
Time = 0.002

MULES: Solving for alpha1
Liquid phase volume fraction = 0.00275421  Min(alpha1) = 0  Max(alpha1) = 1
MULES: Solving for alpha1
Liquid phase volume fraction = 0.00275421  Min(alpha1) = -2.62257e-30  Max(alpha1) = 1
[1] Building level 0
[0] Building level 0
[3] Building level 0
[2] Building level 0
[2] Building level 1
[3] Building level 1
[0] Building level 1
Reconstruction on level 1
[1] Building level 1
Creating AMGLevel 
[2] Building level 2
[3] Building level 2
[1] Building level 2
[0] Building level 2
Reconstruction on level 2
[3] Building level 3
Creating AMGLevel 
[2] Building level 3
[0] Building level 3
Reconstruction on level 3
[1] Building level 3
[1] Building level 4
Creating AMGLevel 
[0] Building level 4
Reconstruction on level 4
[3] Building level 4
[2] Building level 4
[1] Building level 5
Creating AMGLevel 
[0] Building level 5
Reconstruction on level 5
[3] Building level 5
[2] Building level 5
[1] Building level 6
Creating AMGLevel 
[0] Building level 6
Reconstruction on level 6
[3] Building level 6
[2] Building level 6
[1] Building level 7
Creating AMGLevel 
[0] Building level 7
Reconstruction on level 7
[1] Building level 8
[3] Building level 7
[1] Building level 9
Creating AMGLevel 
[0] Building level 8
Reconstruction on level 8
[2] Building level 7
[1] Building level 10
[1] Building level 11
[1] Building level 12
[1] Building level 13
Creating AMGLevel 
[0] Building level 9
Reconstruction on level 9
[1] Building level 14
[3] Building level 8
Creating AMGLevel 
[0] Building level 10
Reconstruction on level 10
[2] Building level 8
Creating AMGLevel 
[0] Building level 11
Reconstruction on level 11
[3] Building level 9
Creating AMGLevel 
[0] Building level 12
Reconstruction on level 12
Creating AMGLevel 
[0] Building level 13
Reconstruction on level 13
Creating AMGLevel 
[0] Building level 14
Reconstruction on level 14
Creating AMGLevel 
14 Level construction complete
[3] Building level 10
[2] Building level 9
[3] Building level 11
[3] Building level 12
[3] Building level 13
[2] Building level 10
[3] Building level 14
[2] Building level 11
[2] Building level 12
[2] Building level 13
[2] Building level 14
GPU: 3 iters: 0.847572 s: 2.3164 GB/s
PCGAMG:  Solving for pd, Initial residual = 0.00352138, Final residual = 0.000132097, No Iterations 3
[1] Building level 0
[0] Building level 0
[3] Building level 0
[2] Building level 0
[0] Building level 1
[3] Building level 1
[1] Building level 1
[2] Building level 1
[2] Building level 2
[1] Building level 2
[3] Building level 2
[0] Building level 2
[2] Building level 3
[1] Building level 3
[3] Building level 3
[0] Building level 3
[1] Building level 4
[2] Building level 4
[0] Building level 4
[3] Building level 4
[1] Building level 5
[2] Building level 5
[0] Building level 5
[3] Building level 5
[1] Building level 6
[2] Building level 6
[1] Building level 7
[0] Building level 6
[3] Building level 6
[1] Building level 8
[2] Building level 7
[1] Building level 9
[1] Building level 10
[1] Building level 11
[0] Building level 7
[1] Building level 12
[1] Building level 13
[1] Building level 14
[2] Building level 8
[3] Building level 7
[0] Building level 8
[2] Building level 9
[2] Building level 10
[2] Building level 11
[2] Building level 12
[0] Building level 9
[2] Building level 13
[2] Building level 14
[0] Building level 10
[3] Building level 8
[0] Building level 11
[0] Building level 12
[0] Building level 13
[0] Building level 14
14 Level construction complete
[3] Building level 9
[3] Building level 10
[3] Building level 11
[3] Building level 12
[3] Building level 13
[3] Building level 14
GPU: 3 iters: 0.843371 s: 2.32793 GB/s
PCGAMG:  Solving for pd, Initial residual = 0.00210612, Final residual = 0.000102142, No Iterations 3
[1] Building level 0
[0] Building level 0
[3] Building level 0
[2] Building level 0
[0] Building level 1
[1] Building level 1
[3] Building level 1
[2] Building level 1
[2] Building level 2
[0] Building level 2
[1] Building level 2
[3] Building level 2
[2] Building level 3
[0] Building level 3
[1] Building level 3
[3] Building level 3
[1] Building level 4
[0] Building level 4
[2] Building level 4
[3] Building level 4
[1] Building level 5
[0] Building level 5
[2] Building level 5
[3] Building level 5
[1] Building level 6
[0] Building level 6
[2] Building level 6
[1] Building level 7
[0] Building level 7
[3] Building level 6
[1] Building level 8
[0] Building level 8
[1] Building level 9
[2] Building level 7
[1] Building level 10
[0] Building level 9
[1] Building level 11
[1] Building level 12
[1] Building level 13
[1] Building level 14
[0] Building level 10
[0] Building level 11
[0] Building level 12
[0] Building level 13
[0] Building level 14
14 Level construction complete
[2] Building level 8
[3] Building level 7
[2] Building level 9
[2] Building level 10
[2] Building level 11
[2] Building level 12
[2] Building level 13
[2] Building level 14
[3] Building level 8
[3] Building level 9
[3] Building level 10
[3] Building level 11
[3] Building level 12
[3] Building level 13
[3] Building level 14
GPU: 23 iters: 5.09825 s: 2.9524 GB/s
PCGAMG:  Solving for pd, Initial residual = 0.00193684, Final residual = 9.22807e-08, No Iterations 23
time step continuity errors : sum local = 4.34533e-12, global = -1.58026e-25, cumulative = 2.24014e-24
ExecutionTime = 178.48 s  ClockTime = 191 s

Courant Number mean: 7.66797e-06 max: 0.00313191 velocity magnitude: 0.048936
Time = 0.003

MULES: Solving for alpha1
Liquid phase volume fraction = 0.00275421  Min(alpha1) = -3.20672e-31  Max(alpha1) = 1
MULES: Solving for alpha1
Liquid phase volume fraction = 0.00275421  Min(alpha1) = -8.40334e-31  Max(alpha1) = 1
[0] Building level 0
[1] Building level 0
[3] Building level 0
[2] Building level 0
[0] Building level 1
Reconstruction on level 1
[1] Building level 1
[2] Building level 1
[3] Building level 1
[2] Building level 2
[1] Building level 2
[1] Building level 3
[2] Building level 3
Creating AMGLevel 
[0] Building level 2
Reconstruction on level 2
[3] Building level 2
[1] Building level 4
[2] Building level 4
[1] Building level 5
[2] Building level 5
[1] Building level 6
Creating AMGLevel 
[3] Building level 3
[0] Building level 3
Reconstruction on level 3
[2] Building level 6
[1] Building level 7
[1] Building level 8
[1] Building level 9
[2] Building level 7
[1] Building level 10
[1] Building level 11
[1] Building level 12
[1] Building level 13
[1] Building level 14
[2] Building level 8
[2] Building level 9
[2] Building level 10
[2] Building level 11
[2] Building level 12
[2] Building level 13
[2] Building level 14
Creating AMGLevel 
[0] Building level 4
Reconstruction on level 4
[3] Building level 4
Creating AMGLevel 
[0] Building level 5
Reconstruction on level 5
[3] Building level 5
Creating AMGLevel 
[0] Building level 6
Reconstruction on level 6
[3] Building level 6
Creating AMGLevel 
[0] Building level 7
Reconstruction on level 7
[3] Building level 7
Creating AMGLevel 
[0] Building level 8
Reconstruction on level 8
Creating AMGLevel 
[0] Building level 9
Reconstruction on level 9
[3] Building level 8
Creating AMGLevel 
[0] Building level 10
Reconstruction on level 10
Creating AMGLevel 
[0] Building level 11
Reconstruction on level 11
Creating AMGLevel 
[0] Building level 12
Reconstruction on level 12
Creating AMGLevel 
[0] Building level 13
Reconstruction on level 13
Creating AMGLevel 
[0] Building level 14
Reconstruction on level 14
[3] Building level 9
Creating AMGLevel 
14 Level construction complete
[3] Building level 10
[3] Building level 11
[3] Building level 12
[3] Building level 13
[3] Building level 14
GPU: 4 iters: 1.11566 s: 2.34636 GB/s
PCGAMG:  Solving for pd, Initial residual = 0.00425824, Final residual = 0.000169947, No Iterations 4
[1] Building level 0
[0] Building level 0
[3] Building level 0
[2] Building level 0
[0] Building level 1
[1] Building level 1
[2] Building level 1
[3] Building level 1
[2] Building level 2
[1] Building level 2
[0] Building level 2
[3] Building level 2
[2] Building level 3
[1] Building level 3
[3] Building level 3
[0] Building level 3
[1] Building level 4
[2] Building level 4
[0] Building level 4
[3] Building level 4
[1] Building level 5
[2] Building level 5
[0] Building level 5
[3] Building level 5
[1] Building level 6
[2] Building level 6
[1] Building level 7
[0] Building level 6
[3] Building level 6
[1] Building level 8
[1] Building level 9
[2] Building level 7
[1] Building level 10
[1] Building level 11
[1] Building level 12
[1] Building level 13
[0] Building level 7
[1] Building level 14
[2] Building level 8
[3] Building level 7
[0] Building level 8
[2] Building level 9
[2] Building level 10
[0] Building level 9
[2] Building level 11
[2] Building level 12
[2] Building level 13
[2] Building level 14
[3] Building level 8
[0] Building level 10
[0] Building level 11
[0] Building level 12
[0] Building level 13
[0] Building level 14
14 Level construction complete
[3] Building level 9
[3] Building level 10
[3] Building level 11
[3] Building level 12
[3] Building level 13
[3] Building level 14
GPU: 4 iters: 1.12249 s: 2.33209 GB/s
PCGAMG:  Solving for pd, Initial residual = 0.00305406, Final residual = 9.16139e-05, No Iterations 4
[0] Building level 0
[1] Building level 0
[3] Building level 0
[2] Building level 0
[0] Building level 1
[1] Building level 1
[2] Building level 1
[3] Building level 1
[2] Building level 2
[1] Building level 2
[0] Building level 2
[3] Building level 2
[2] Building level 3
[1] Building level 3
[3] Building level 3
[0] Building level 3
[1] Building level 4
[2] Building level 4
[0] Building level 4
[3] Building level 4
[1] Building level 5
[2] Building level 5
[0] Building level 5
[3] Building level 5
[1] Building level 6
[2] Building level 6
[1] Building level 7
[0] Building level 6
[3] Building level 6
[1] Building level 8
[1] Building level 9
[2] Building level 7
[1] Building level 10
[1] Building level 11
[1] Building level 12
[0] Building level 7
[1] Building level 13
[1] Building level 14
[2] Building level 8
[3] Building level 7
[0] Building level 8
[2] Building level 9
[2] Building level 10
[0] Building level 9
[2] Building level 11
[2] Building level 12
[2] Building level 13
[2] Building level 14
[3] Building level 8
[0] Building level 10
[0] Building level 11
[0] Building level 12
[0] Building level 13
[0] Building level 14
14 Level construction complete
[3] Building level 9
[3] Building level 10
[3] Building level 11
[3] Building level 12
[3] Building level 13
[3] Building level 14
GPU: 27 iters: 6.2405 s: 2.83148 GB/s
PCGAMG:  Solving for pd, Initial residual = 0.00260122, Final residual = 8.74717e-08, No Iterations 27
time step continuity errors : sum local = 4.10987e-12, global = -4.56362e-25, cumulative = 1.78378e-24
ExecutionTime = 232.2 s  ClockTime = 245 s

Courant Number mean: 1.35656e-05 max: 0.00482501 velocity magnitude: 0.0753908
Time = 0.004

MULES: Solving for alpha1
Liquid phase volume fraction = 0.00275421  Min(alpha1) = -1.69605e-31  Max(alpha1) = 1
MULES: Solving for alpha1
Liquid phase volume fraction = 0.00275421  Min(alpha1) = -2.43758e-31  Max(alpha1) = 1
[1] Building level 0
[0] Building level 0
[2] Building level 0
[3] Building level 0
[1] Building level 1
[0] Building level 1
[2] Building level 1
[3] Building level 1
[0] Building level 2
Reconstruction on level 2
[1] Building level 2
Creating AMGLevel 
[0] Building level 3
Reconstruction on level 3
[1] Building level 3
[2] Building level 2
[3] Building level 2
[1] Building level 4
Creating AMGLevel 
[0] Building level 4
Reconstruction on level 4
[1] Building level 5
Creating AMGLevel 
[0] Building level 5
Reconstruction on level 5
[1] Building level 6
[2] Building level 3
[3] Building level 3
Creating AMGLevel 
[0] Building level 6
Reconstruction on level 6
[1] Building level 7
Creating AMGLevel 
[0] Building level 7
Reconstruction on level 7
[1] Building level 8
Creating AMGLevel 
[0] Building level 8
Reconstruction on level 8
[1] Building level 9
[1] Building level 10
Creating AMGLevel 
[0] Building level 9
Reconstruction on level 9
[1] Building level 11
[1] Building level 12
[1] Building level 13
Creating AMGLevel 
[0] Building level 10
Reconstruction on level 10
[1] Building level 14
Creating AMGLevel 
[0] Building level 11
Reconstruction on level 11
Creating AMGLevel 
[0] Building level 12
Reconstruction on level 12
Creating AMGLevel 
[0] Building level 13
Reconstruction on level 13
Creating AMGLevel 
[0] Building level 14
Reconstruction on level 14
Creating AMGLevel 
14 Level construction complete
[2] Building level 4
[3] Building level 4
[2] Building level 5
[3] Building level 5
[2] Building level 6
[3] Building level 6
[2] Building level 7
[3] Building level 7
[2] Building level 8
[3] Building level 8
[2] Building level 9
[3] Building level 9
[2] Building level 10
[3] Building level 10
[2] Building level 11
[3] Building level 11
[2] Building level 12
[3] Building level 12
[2] Building level 13
[3] Building level 13
[2] Building level 14
[3] Building level 14
GPU: 4 iters: 1.07783 s: 2.42871 GB/s
PCGAMG:  Solving for pd, Initial residual = 0.00343448, Final residual = 0.000102596, No Iterations 4
[0] Building level 0
[1] Building level 0
[3] Building level 0
[2] Building level 0
[2] Building level 1
[3] Building level 1
[0] Building level 1
[1] Building level 1
[2] Building level 2
[3] Building level 2
[0] Building level 2
[1] Building level 2
[2] Building level 3
[3] Building level 3
[0] Building level 3
[1] Building level 3
[2] Building level 4
[3] Building level 4
[1] Building level 4
[0] Building level 4
[2] Building level 5
[1] Building level 5
[3] Building level 5
[0] Building level 5
[2] Building level 6
[1] Building level 6
[2] Building level 7
[3] Building level 6
[0] Building level 6
[2] Building level 8
[1] Building level 7
[2] Building level 9
[2] Building level 10
[2] Building level 11
[2] Building level 12
[2] Building level 13
[2] Building level 14
[3] Building level 7
[1] Building level 8
[0] Building level 7
[1] Building level 9
[3] Building level 8
[1] Building level 10
[1] Building level 11
[1] Building level 12
[1] Building level 13
[1] Building level 14
[3] Building level 9
[0] Building level 8
[3] Building level 10
[3] Building level 11
[3] Building level 12
[3] Building level 13
[3] Building level 14
[0] Building level 9
[0] Building level 10
[0] Building level 11
[0] Building level 12
[0] Building level 13
[0] Building level 14
14 Level construction complete
GPU: 4 iters: 1.08918 s: 2.40342 GB/s
PCGAMG:  Solving for pd, Initial residual = 0.00317209, Final residual = 0.000151966, No Iterations 4
[1] Building level 0
[0] Building level 0
[2] Building level 0
[3] Building level 0
[2] Building level 1
[3] Building level 1
[1] Building level 1
[0] Building level 1
[2] Building level 2
[3] Building level 2
[0] Building level 2
[1] Building level 2
[2] Building level 3
[3] Building level 3
[0] Building level 3
[1] Building level 3
[2] Building level 4
[3] Building level 4
[1] Building level 4
[0] Building level 4
[2] Building level 5
[1] Building level 5
[3] Building level 5
[0] Building level 5
[2] Building level 6
[1] Building level 6
[2] Building level 7
[3] Building level 6
[0] Building level 6
[2] Building level 8
[1] Building level 7
[2] Building level 9
[2] Building level 10
[2] Building level 11
[2] Building level 12
[2] Building level 13
[2] Building level 14
[3] Building level 7
[1] Building level 8
[0] Building level 7
[1] Building level 9
[1] Building level 10
[1] Building level 11
[3] Building level 8
[1] Building level 12
[1] Building level 13
[1] Building level 14
[3] Building level 9
[0] Building level 8
[3] Building level 10
[3] Building level 11
[3] Building level 12
[0] Building level 9
[3] Building level 13
[3] Building level 14
[0] Building level 10
[0] Building level 11
[0] Building level 12
[0] Building level 13
[0] Building level 14
14 Level construction complete
GPU: 16 iters: 3.68202 s: 2.84382 GB/s
PCGAMG:  Solving for pd, Initial residual = 0.00245167, Final residual = 8.04072e-08, No Iterations 16
time step continuity errors : sum local = 3.75756e-12, global = -4.35756e-24, cumulative = -2.57378e-24
ExecutionTime = 284.89 s  ClockTime = 299 s

Courant Number mean: 1.9242e-05 max: 0.00597572 velocity magnitude: 0.0933706
Time = 0.005

MULES: Solving for alpha1
Liquid phase volume fraction = 0.00275421  Min(alpha1) = -2.72157e-31  Max(alpha1) = 1
MULES: Solving for alpha1
Liquid phase volume fraction = 0.00275421  Min(alpha1) = -4.26351e-30  Max(alpha1) = 1
[1] Building level 0
[0] Building level 0
[3] Building level 0
[2] Building level 0
[1] Building level 1
[0] Building level 1
Reconstruction on level 1
[2] Building level 1
[3] Building level 1
[2] Building level 2
[1] Building level 2
[1] Building level 3
[2] Building level 3
Creating AMGLevel 
[3] Building level 2
[0] Building level 2
Reconstruction on level 2
[1] Building level 4
[2] Building level 4
[1] Building level 5
[2] Building level 5
Creating AMGLevel 
[3] Building level 3
[0] Building level 3
Reconstruction on level 3
[1] Building level 6
[2] Building level 6
[1] Building level 7
[2] Building level 7
[1] Building level 8
[1] Building level 9
[2] Building level 8
[1] Building level 10
[1] Building level 11
[1] Building level 12
[2] Building level 9
[1] Building level 13
[1] Building level 14
[2] Building level 10
[2] Building level 11
[2] Building level 12
[2] Building level 13
[2] Building level 14
Creating AMGLevel 
[0] Building level 4
Reconstruction on level 4
[3] Building level 4
Creating AMGLevel 
[0] Building level 5
Reconstruction on level 5
[3] Building level 5
Creating AMGLevel 
[0] Building level 6
Reconstruction on level 6
[3] Building level 6
Creating AMGLevel 
[0] Building level 7
Reconstruction on level 7
[3] Building level 7
Creating AMGLevel 
[0] Building level 8
Reconstruction on level 8
[3] Building level 8
Creating AMGLevel 
[0] Building level 9
Reconstruction on level 9
[3] Building level 9
Creating AMGLevel 
[0] Building level 10
Reconstruction on level 10
[3] Building level 10
Creating AMGLevel 
[0] Building level 11
Reconstruction on level 11
Creating AMGLevel 
[0] Building level 12
Reconstruction on level 12
[3] Building level 11
Creating AMGLevel 
[0] Building level 13
Reconstruction on level 13
Creating AMGLevel 
[3] Building level 12
[0] Building level 14
Reconstruction on level 14
Creating AMGLevel 
14 Level construction complete
[3] Building level 13
[3] Building level 14
GPU: 4 iters: 1.11218 s: 2.3537 GB/s
PCGAMG:  Solving for pd, Initial residual = 0.00216935, Final residual = 0.000100048, No Iterations 4
[1] Building level 0
[0] Building level 0
[3] Building level 0
[2] Building level 0
[0] Building level 1
[1] Building level 1
[2] Building level 1
[3] Building level 1
[0] Building level 2
[2] Building level 2
[1] Building level 2
[3] Building level 2
[0] Building level 3
[2] Building level 3
[1] Building level 3
[3] Building level 3
[0] Building level 4
[1] Building level 4
[2] Building level 4
[3] Building level 4
[0] Building level 5
[1] Building level 5
[2] Building level 5
[0] Building level 6
[3] Building level 5
[1] Building level 6
[0] Building level 7
[2] Building level 6
[1] Building level 7
[0] Building level 8
[0] Building level 9
[0] Building level 10
[1] Building level 8
[3] Building level 6
[0] Building level 11
[0] Building level 12
[0] Building level 13
[2] Building level 7
[0] Building level 14
14 Level construction complete
[1] Building level 9
[1] Building level 10
[1] Building level 11
[1] Building level 12
[1] Building level 13
[1] Building level 14
[2] Building level 8
[2] Building level 9
[3] Building level 7
[2] Building level 10
[2] Building level 11
[2] Building level 12
[2] Building level 13
[2] Building level 14
[3] Building level 8
[3] Building level 9
[3] Building level 10
[3] Building level 11
[3] Building level 12
[3] Building level 13
[3] Building level 14
GPU: 4 iters: 1.12105 s: 2.33508 GB/s
PCGAMG:  Solving for pd, Initial residual = 0.00180287, Final residual = 8.18807e-05, No Iterations 4
[1] Building level 0
[0] Building level 0
[2] Building level 0
[3] Building level 0
[3] Building level 1
[2] Building level 1
[0] Building level 1
[1] Building level 1
[2] Building level 2
[3] Building level 2
[0] Building level 2
[1] Building level 2
[2] Building level 3
[3] Building level 3
[0] Building level 3
[1] Building level 3
[2] Building level 4
[0] Building level 4
[3] Building level 4
[1] Building level 4
[2] Building level 5
[0] Building level 5
[1] Building level 5
[3] Building level 5
[2] Building level 6
[0] Building level 6
[1] Building level 6
[3] Building level 6
[2] Building level 7
[0] Building level 7
[2] Building level 8
[1] Building level 7
[2] Building level 9
[0] Building level 8
[2] Building level 10
[3] Building level 7
[2] Building level 11
[2] Building level 12
[2] Building level 13
[0] Building level 9
[2] Building level 14
[0] Building level 10
[1] Building level 8
[0] Building level 11
[0] Building level 12
[0] Building level 13
[0] Building level 14
14 Level construction complete
[1] Building level 9
[3] Building level 8
[1] Building level 10
[1] Building level 11
[1] Building level 12
[3] Building level 9
[1] Building level 13
[1] Building level 14
[3] Building level 10
[3] Building level 11
[3] Building level 12
[3] Building level 13
[3] Building level 14
GPU: 43 iters: 9.81291 s: 2.86773 GB/s
PCGAMG:  Solving for pd, Initial residual = 0.00146151, Final residual = 9.51656e-08, No Iterations 43
time step continuity errors : sum local = 4.4353e-12, global = -2.70746e-24, cumulative = -5.28124e-24
ExecutionTime = 343.36 s  ClockTime = 358 s

Courant Number mean: 2.4382e-05 max: 0.00683531 velocity magnitude: 0.106802
Time = 0.006

MULES: Solving for alpha1
Liquid phase volume fraction = 0.00275421  Min(alpha1) = -1.37459e-30  Max(alpha1) = 1
MULES: Solving for alpha1
Liquid phase volume fraction = 0.00275421  Min(alpha1) = -1.6215e-30  Max(alpha1) = 1
[0] Building level 0
[1] Building level 0
[3] Building level 0
[2] Building level 0
[2] Building level 1
[3] Building level 1
[1] Building level 1
[0] Building level 1
[2] Building level 2
[0] Building level 2
Reconstruction on level 2
[1] Building level 2
Creating AMGLevel 
[0] Building level 3
Reconstruction on level 3
[2] Building level 3
[1] Building level 3
[3] Building level 2
Creating AMGLevel 
[0] Building level 4
Reconstruction on level 4
[1] Building level 4
[2] Building level 4
Creating AMGLevel 
[1] Building level 5
[0] Building level 5
Reconstruction on level 5
[2] Building level 5
[3] Building level 3
Creating AMGLevel 
[1] Building level 6
[0] Building level 6
Reconstruction on level 6
[2] Building level 6
Creating AMGLevel 
[0] Building level 7
Reconstruction on level 7
[1] Building level 7
[2] Building level 7
Creating AMGLevel 
[0] Building level 8
Reconstruction on level 8
[1] Building level 8
[2] Building level 8
Creating AMGLevel 
[0] Building level 9
Reconstruction on level 9
[1] Building level 9
Creating AMGLevel 
[0] Building level 10
Reconstruction on level 10
[2] Building level 9
[1] Building level 10
Creating AMGLevel 
[0] Building level 11
Reconstruction on level 11
[1] Building level 11
Creating AMGLevel 
[0] Building level 12
Reconstruction on level 12
[2] Building level 10
[1] Building level 12
Creating AMGLevel 
[0] Building level 13
Reconstruction on level 13
Creating AMGLevel 
[1] Building level 13
[0] Building level 14
Reconstruction on level 14
[2] Building level 11
Creating AMGLevel 
14 Level construction complete
[1] Building level 14
[2] Building level 12
[2] Building level 13
[2] Building level 14
[3] Building level 4
[3] Building level 5
[3] Building level 6
[3] Building level 7
[3] Building level 8
[3] Building level 9
[3] Building level 10
[3] Building level 11
[3] Building level 12
[3] Building level 13
[3] Building level 14
GPU: 4 iters: 1.07706 s: 2.43047 GB/s
PCGAMG:  Solving for pd, Initial residual = 0.00228053, Final residual = 0.000110439, No Iterations 4
[0] Building level 0
[1] Building level 0
[2] Building level 0
[3] Building level 0
[3] Building level 1
[2] Building level 1
[1] Building level 1
[0] Building level 1
[2] Building level 2
[3] Building level 2
[0] Building level 2
[1] Building level 2
[2] Building level 3
[3] Building level 3
[0] Building level 3
[1] Building level 3
[2] Building level 4
[3] Building level 4
[0] Building level 4
[1] Building level 4
[2] Building level 5
[0] Building level 5
[3] Building level 5
[1] Building level 5
[2] Building level 6
[0] Building level 6
[3] Building level 6
[1] Building level 6
[2] Building level 7
[0] Building level 7
[2] Building level 8
[3] Building level 7
[1] Building level 7
[2] Building level 9
[2] Building level 10
[2] Building level 11
[0] Building level 8
[2] Building level 12
[3] Building level 8
[2] Building level 13
[1] Building level 8
[2] Building level 14
[0] Building level 9
[3] Building level 9
[1] Building level 9
[0] Building level 10
[1] Building level 10
[3] Building level 10
[0] Building level 11
[1] Building level 11
[3] Building level 11
[0] Building level 12
[3] Building level 12
[0] Building level 13
[1] Building level 12
[3] Building level 13
[0] Building level 14
14 Level construction complete
[1] Building level 13
[3] Building level 14
[1] Building level 14
GPU: 5 iters: 1.27915 s: 2.5581 GB/s
PCGAMG:  Solving for pd, Initial residual = 0.00119694, Final residual = 4.06169e-05, No Iterations 5
[0] Building level 0
[1] Building level 0
[2] Building level 0
[3] Building level 0
[0] Building level 1
[1] Building level 1
[3] Building level 1
[2] Building level 1
[0] Building level 2
[2] Building level 2
[1] Building level 2
[3] Building level 2
[0] Building level 3
[2] Building level 3
[1] Building level 3
[3] Building level 3
[0] Building level 4
[1] Building level 4
[2] Building level 4
[3] Building level 4
[0] Building level 5
[1] Building level 5
[2] Building level 5
[3] Building level 5
[0] Building level 6
[1] Building level 6
[2] Building level 6
[0] Building level 7
[1] Building level 7
[3] Building level 6
[0] Building level 8
[1] Building level 8
[2] Building level 7
[0] Building level 9
[1] Building level 9
[0] Building level 10
[0] Building level 11
[1] Building level 10
[0] Building level 12
[0] Building level 13
[0] Building level 14
[1] Building level 11
14 Level construction complete
[1] Building level 12
[1] Building level 13
[1] Building level 14
[2] Building level 8
[3] Building level 7
[2] Building level 9
[2] Building level 10
[2] Building level 11
[2] Building level 12
[3] Building level 8
[2] Building level 13
[2] Building level 14
[3] Building level 9
[3] Building level 10
[3] Building level 11
[3] Building level 12
[3] Building level 13
[3] Building level 14
GPU: 39 iters: 8.4686 s: 3.01385 GB/s
PCGAMG:  Solving for pd, Initial residual = 0.000703962, Final residual = 8.84744e-08, No Iterations 39
time step continuity errors : sum local = 4.11757e-12, global = -1.69236e-24, cumulative = -6.9736e-24
ExecutionTime = 400.03 s  ClockTime = 416 s

Courant Number mean: 2.94976e-05 max: 0.00763854 velocity magnitude: 0.119352
Time = 0.007

MULES: Solving for alpha1
Liquid phase volume fraction = 0.00275421  Min(alpha1) = -2.47505e-30  Max(alpha1) = 1
MULES: Solving for alpha1
Liquid phase volume fraction = 0.00275421  Min(alpha1) = -3.60485e-30  Max(alpha1) = 1
[1] Building level 0
[0] Building level 0
[2] Building level 0
[3] Building level 0
[0] Building level 1
[1] Building level 1
[2] Building level 1
[3] Building level 1
[2] Building level 2
[0] Building level 2
Reconstruction on level 2
[1] Building level 2
Creating AMGLevel 
[0] Building level 3
Reconstruction on level 3
[1] Building level 3
[2] Building level 3
[3] Building level 2
Creating AMGLevel 
[0] Building level 4
Reconstruction on level 4
[1] Building level 4
[2] Building level 4
Creating AMGLevel 
[1] Building level 5
[0] Building level 5
Reconstruction on level 5
[2] Building level 5
[3] Building level 3
Creating AMGLevel 
[1] Building level 6
[0] Building level 6
Reconstruction on level 6
[2] Building level 6
Creating AMGLevel 
[1] Building level 7
[0] Building level 7
Reconstruction on level 7
[2] Building level 7
[1] Building level 8
Creating AMGLevel 
[0] Building level 8
Reconstruction on level 8
[1] Building level 9
Creating AMGLevel 
[0] Building level 9
Reconstruction on level 9
[2] Building level 8
[1] Building level 10
Creating AMGLevel 
[0] Building level 10
Reconstruction on level 10
[1] Building level 11
Creating AMGLevel 
[0] Building level 11
Reconstruction on level 11
[1] Building level 12
Creating AMGLevel 
[0] Building level 12
Reconstruction on level 12
[1] Building level 13
Creating AMGLevel 
[0] Building level 13
Reconstruction on level 13
[1] Building level 14
[2] Building level 9
Creating AMGLevel 
[0] Building level 14
Reconstruction on level 14
Creating AMGLevel 
14 Level construction complete
[2] Building level 10
[2] Building level 11
[2] Building level 12
[2] Building level 13
[2] Building level 14
[3] Building level 4
[3] Building level 5
[3] Building level 6
[3] Building level 7
[3] Building level 8
[3] Building level 9
[3] Building level 10
[3] Building level 11
[3] Building level 12
[3] Building level 13
[3] Building level 14
GPU: 5 iters: 1.25113 s: 2.61538 GB/s
PCGAMG:  Solving for pd, Initial residual = 0.00231986, Final residual = 9.01092e-05, No Iterations 5
[1] Building level 0
[0] Building level 0
[2] Building level 0
[3] Building level 0
[0] Building level 1
[1] Building level 1
[2] Building level 1
[3] Building level 1
[0] Building level 2
[2] Building level 2
[1] Building level 2
[3] Building level 2
[0] Building level 3
[2] Building level 3
[1] Building level 3
[3] Building level 3
[0] Building level 4
[2] Building level 4
[1] Building level 4
[3] Building level 4
[0] Building level 5
[2] Building level 5
[1] Building level 5
[3] Building level 5
[0] Building level 6
[2] Building level 6
[1] Building level 6
[0] Building level 7
[3] Building level 6
[0] Building level 8
[1] Building level 7
[2] Building level 7
[0] Building level 9
[0] Building level 10
[0] Building level 11
[0] Building level 12
[0] Building level 13
[0] Building level 14
14 Level construction complete
[1] Building level 8
[2] Building level 8
[1] Building level 9
[2] Building level 9
[3] Building level 7
[1] Building level 10
[1] Building level 11
[2] Building level 10
[1] Building level 12
[1] Building level 13
[1] Building level 14
[2] Building level 11
[2] Building level 12
[2] Building level 13
[2] Building level 14
[3] Building level 8
[3] Building level 9
[3] Building level 10
[3] Building level 11
[3] Building level 12
[3] Building level 13
[3] Building level 14
GPU: 7 iters: 1.65434 s: 2.76911 GB/s
PCGAMG:  Solving for pd, Initial residual = 0.00108757, Final residual = 3.74614e-05, No Iterations 7
[1] Building level 0
[0] Building level 0
[3] Building level 0
[2] Building level 0
[1] Building level 1
[3] Building level 1
[0] Building level 1
[2] Building level 1
[2] Building level 2
[0] Building level 2
[1] Building level 2
[3] Building level 2
[0] Building level 3
[2] Building level 3
[1] Building level 3
[3] Building level 3
[0] Building level 4
[2] Building level 4
[1] Building level 4
[3] Building level 4
[0] Building level 5
[2] Building level 5
[1] Building level 5
[3] Building level 5
[0] Building level 6
[1] Building level 6
[2] Building level 6
[0] Building level 7
[3] Building level 6
[0] Building level 8
[1] Building level 7
[2] Building level 7
[0] Building level 9
[0] Building level 10
[0] Building level 11
[1] Building level 8
[0] Building level 12
[0] Building level 13
[0] Building level 14
14 Level construction complete
[2] Building level 8
[1] Building level 9
[3] Building level 7
[2] Building level 9
[1] Building level 10
[1] Building level 11
[2] Building level 10
[1] Building level 12
[1] Building level 13
[1] Building level 14
[2] Building level 11
[2] Building level 12
[2] Building level 13
[2] Building level 14
[3] Building level 8
[3] Building level 9
[3] Building level 10
[3] Building level 11
[3] Building level 12
[3] Building level 13
[3] Building level 14
GPU: 34 iters: 7.26064 s: 3.06459 GB/s
PCGAMG:  Solving for pd, Initial residual = 0.00052737, Final residual = 9.73833e-08, No Iterations 34
time step continuity errors : sum local = 4.52041e-12, global = -8.52738e-24, cumulative = -1.5501e-23
ExecutionTime = 457.44 s  ClockTime = 474 s

Courant Number mean: 3.46185e-05 max: 0.00834619 velocity magnitude: 0.130409
Time = 0.008

MULES: Solving for alpha1
Liquid phase volume fraction = 0.00275421  Min(alpha1) = -5.30233e-30  Max(alpha1) = 1
MULES: Solving for alpha1
Liquid phase volume fraction = 0.00275421  Min(alpha1) = -1.1599e-29  Max(alpha1) = 1
[0] Building level 0
[1] Building level 0
[3] Building level 0
[2] Building level 0
[0] Building level 1
[2] Building level 1
[1] Building level 1
[3] Building level 1
[0] Building level 2
Reconstruction on level 2
[2] Building level 2
[1] Building level 2
Creating AMGLevel 
[0] Building level 3
Reconstruction on level 3
[1] Building level 3
[2] Building level 3
[3] Building level 2
Creating AMGLevel 
[0] Building level 4
Reconstruction on level 4
[1] Building level 4
[2] Building level 4
Creating AMGLevel 
[0] Building level 5
Reconstruction on level 5
[1] Building level 5
[2] Building level 5
[3] Building level 3
Creating AMGLevel 
[0] Building level 6
Reconstruction on level 6
[1] Building level 6
[2] Building level 6
Creating AMGLevel 
[0] Building level 7
Reconstruction on level 7
[1] Building level 7
[2] Building level 7
Creating AMGLevel 
[0] Building level 8
Reconstruction on level 8
[1] Building level 8
Creating AMGLevel 
[0] Building level 9
Reconstruction on level 9
[1] Building level 9
[2] Building level 8
Creating AMGLevel 
[0] Building level 10
Reconstruction on level 10
[1] Building level 10
Creating AMGLevel 
[0] Building level 11
Reconstruction on level 11
[1] Building level 11
Creating AMGLevel 
[0] Building level 12
Reconstruction on level 12
[1] Building level 12
Creating AMGLevel 
[0] Building level 13
Reconstruction on level 13
[1] Building level 13
Creating AMGLevel 
[0] Building level 14
Reconstruction on level 14
[2] Building level 9
[1] Building level 14
Creating AMGLevel 
14 Level construction complete
[2] Building level 10
[2] Building level 11
[2] Building level 12
[2] Building level 13
[2] Building level 14
[3] Building level 4
[3] Building level 5
[3] Building level 6
[3] Building level 7
[3] Building level 8
[3] Building level 9
[3] Building level 10
[3] Building level 11
[3] Building level 12
[3] Building level 13
[3] Building level 14
GPU: 7 iters: 1.64079 s: 2.79198 GB/s
PCGAMG:  Solving for pd, Initial residual = 0.00236106, Final residual = 9.29194e-05, No Iterations 7
[1] Building level 0
[0] Building level 0
[3] Building level 0
[2] Building level 0
[0] Building level 1
[3] Building level 1
[2] Building level 1
[1] Building level 1
[0] Building level 2
[2] Building level 2
[1] Building level 2
[3] Building level 2
[0] Building level 3
[2] Building level 3
[1] Building level 3
[3] Building level 3
[0] Building level 4
[2] Building level 4
[1] Building level 4
[3] Building level 4
[0] Building level 5
[2] Building level 5
[1] Building level 5
[3] Building level 5
[0] Building level 6
[2] Building level 6
[1] Building level 6
[0] Building level 7
[3] Building level 6
[0] Building level 8
[2] Building level 7
[0] Building level 9
[1] Building level 7
[0] Building level 10
[0] Building level 11
[0] Building level 12
[0] Building level 13
[0] Building level 14
14 Level construction complete
[3] Building level 7
[2] Building level 8
[1] Building level 8
[2] Building level 9
[1] Building level 9
[2] Building level 10
[1] Building level 10
[2] Building level 11
[3] Building level 8
[1] Building level 11
[2] Building level 12
[2] Building level 13
[1] Building level 12
[2] Building level 14
[1] Building level 13
[1] Building level 14
[3] Building level 9
[3] Building level 10
[3] Building level 11
[3] Building level 12
[3] Building level 13
[3] Building level 14
GPU: 9 iters: 2.06538 s: 2.85175 GB/s
PCGAMG:  Solving for pd, Initial residual = 0.00105972, Final residual = 3.83211e-05, No Iterations 9
[0] Building level 0
[1] Building level 0
[3] Building level 0
[2] Building level 0
[2] Building level 1
[3] Building level 1
[0] Building level 1
[1] Building level 1
[2] Building level 2
[3] Building level 2
[0] Building level 2
[1] Building level 2
[2] Building level 3
[3] Building level 3
[0] Building level 3
[1] Building level 3
[2] Building level 4
[3] Building level 4
[0] Building level 4
[1] Building level 4
[2] Building level 5
[3] Building level 5
[0] Building level 5
[1] Building level 5
[2] Building level 6
[3] Building level 6
[0] Building level 6
[2] Building level 7
[1] Building level 6
[2] Building level 8
[3] Building level 7
[0] Building level 7
[2] Building level 9
[2] Building level 10
[2] Building level 11
[2] Building level 12
[2] Building level 13
[2] Building level 14
[3] Building level 8
[0] Building level 8
[1] Building level 7
[3] Building level 9
[0] Building level 9
[3] Building level 10
[0] Building level 10
[3] Building level 11
[3] Building level 12
[3] Building level 13
[3] Building level 14
[0] Building level 11
[0] Building level 12
[0] Building level 13
[0] Building level 14
14 Level construction complete
[1] Building level 8
[1] Building level 9
[1] Building level 10
[1] Building level 11
[1] Building level 12
[1] Building level 13
[1] Building level 14
GPU: 50 iters: 10.4797 s: 3.1224 GB/s
PCGAMG:  Solving for pd, Initial residual = 0.000446262, Final residual = 1.61067e-07, No Iterations 50
time step continuity errors : sum local = 7.44502e-12, global = 2.68828e-24, cumulative = -1.28127e-23
ExecutionTime = 518.66 s  ClockTime = 537 s

Courant Number mean: 3.97535e-05 max: 0.0090393 velocity magnitude: 0.140324
Time = 0.009

MULES: Solving for alpha1
Liquid phase volume fraction = 0.00275421  Min(alpha1) = -1.62718e-29  Max(alpha1) = 1
MULES: Solving for alpha1
Liquid phase volume fraction = 0.00275421  Min(alpha1) = -2.2987e-29  Max(alpha1) = 1
[1] Building level 0
[0] Building level 0
[3] Building level 0
[2] Building level 0
[3] Building level 1
[2] Building level 1
[0] Building level 1
[1] Building level 1
[0] Building level 2
Reconstruction on level 2
Creating AMGLevel 
[0] Building level 3
Reconstruction on level 3
[2] Building level 2
[3] Building level 2
[1] Building level 2
Creating AMGLevel 
[0] Building level 4
Reconstruction on level 4
Creating AMGLevel 
[0] Building level 5
Reconstruction on level 5
[3] Building level 3
[2] Building level 3
[1] Building level 3
Creating AMGLevel 
[0] Building level 6
Reconstruction on level 6
Creating AMGLevel 
[0] Building level 7
Reconstruction on level 7
Creating AMGLevel 
[0] Building level 8
Reconstruction on level 8
Creating AMGLevel 
[0] Building level 9
Reconstruction on level 9
Creating AMGLevel 
[0] Building level 10
Reconstruction on level 10
Creating AMGLevel 
[0] Building level 11
Reconstruction on level 11
Creating AMGLevel 
[0] Building level 12
Reconstruction on level 12
Creating AMGLevel 
[0] Building level 13
Reconstruction on level 13
Creating AMGLevel 
[0] Building level 14
Reconstruction on level 14
Creating AMGLevel 
14 Level construction complete
[3] Building level 4
[1] Building level 4
[2] Building level 4
[1] Building level 5
[3] Building level 5
[2] Building level 5
[1] Building level 6
[3] Building level 6
[2] Building level 6
[1] Building level 7
[3] Building level 7
[2] Building level 7
[1] Building level 8
[3] Building level 8
[2] Building level 8
[1] Building level 9
[1] Building level 10
[3] Building level 9
[2] Building level 9
[1] Building level 11
[1] Building level 12
[1] Building level 13
[3] Building level 10
[1] Building level 14
[2] Building level 10
[3] Building level 11
[2] Building level 11
[3] Building level 12
[2] Building level 12
[3] Building level 13
[2] Building level 13
[3] Building level 14
[2] Building level 14
GPU: 4 iters: 1.01805 s: 2.57135 GB/s
PCGAMG:  Solving for pd, Initial residual = 0.00242152, Final residual = 9.67847e-05, No Iterations 4
[1] Building level 0
[0] Building level 0
[2] Building level 0
[3] Building level 0
[3] Building level 1
[2] Building level 1
[1] Building level 1
[0] Building level 1
[3] Building level 2
[2] Building level 2
[0] Building level 2
[1] Building level 2
[3] Building level 3
[2] Building level 3
[0] Building level 3
[1] Building level 3
[3] Building level 4
[2] Building level 4
[0] Building level 4
[1] Building level 4
[3] Building level 5
[2] Building level 5
[0] Building level 5
[1] Building level 5
[3] Building level 6
[2] Building level 6
[0] Building level 6
[3] Building level 7
[1] Building level 6
[2] Building level 7
[0] Building level 7
[3] Building level 8
[3] Building level 9
[2] Building level 8
[3] Building level 10
[3] Building level 11
[0] Building level 8
[3] Building level 12
[1] Building level 7
[3] Building level 13
[2] Building level 9
[3] Building level 14
[2] Building level 10
[0] Building level 9
[2] Building level 11
[2] Building level 12
[2] Building level 13
[2] Building level 14
[0] Building level 10
[0] Building level 11
[0] Building level 12
[1] Building level 8
[0] Building level 13
[0] Building level 14
14 Level construction complete
[1] Building level 9
[1] Building level 10
[1] Building level 11
[1] Building level 12
[1] Building level 13
[1] Building level 14
GPU: 5 iters: 1.22234 s: 2.67699 GB/s
PCGAMG:  Solving for pd, Initial residual = 0.00101757, Final residual = 3.76015e-05, No Iterations 5
[0] Building level 0
[1] Building level 0
[2] Building level 0
[3] Building level 0
[3] Building level 1
[2] Building level 1
[1] Building level 1
[0] Building level 1
[3] Building level 2
[2] Building level 2
[0] Building level 2
[1] Building level 2
[3] Building level 3
[2] Building level 3
[0] Building level 3
[1] Building level 3
[3] Building level 4
[2] Building level 4
[0] Building level 4
[1] Building level 4
[3] Building level 5
[2] Building level 5
[0] Building level 5
[1] Building level 5
[3] Building level 6
[2] Building level 6
[0] Building level 6
[3] Building level 7
[1] Building level 6
[2] Building level 7
[0] Building level 7
[3] Building level 8
[3] Building level 9
[2] Building level 8
[3] Building level 10
[0] Building level 8
[3] Building level 11
[3] Building level 12
[3] Building level 13
[3] Building level 14
[2] Building level 9
[0] Building level 9
[1] Building level 7
[2] Building level 10
[2] Building level 11
[0] Building level 10
[2] Building level 12
[2] Building level 13
[2] Building level 14
[0] Building level 11
[0] Building level 12
[0] Building level 13
[0] Building level 14
14 Level construction complete
[1] Building level 8
[1] Building level 9
[1] Building level 10
[1] Building level 11
[1] Building level 12
[1] Building level 13
[1] Building level 14
GPU: 50 iters: 10.3563 s: 3.15961 GB/s
PCGAMG:  Solving for pd, Initial residual = 0.00036564, Final residual = 1.98788e-07, No Iterations 50
time step continuity errors : sum local = 9.15839e-12, global = 2.2739e-24, cumulative = -1.05388e-23
ExecutionTime = 578.45 s  ClockTime = 598 s

Courant Number mean: 4.49081e-05 max: 0.00972004 velocity magnitude: 0.14933
Time = 0.01

MULES: Solving for alpha1
Liquid phase volume fraction = 0.00275421  Min(alpha1) = -2.9488e-29  Max(alpha1) = 1
MULES: Solving for alpha1
Liquid phase volume fraction = 0.00275421  Min(alpha1) = -5.64292e-29  Max(alpha1) = 1
[0] Building level 0
[1] Building level 0
[3] Building level 0
[2] Building level 0
[3] Building level 1
[2] Building level 1
[1] Building level 1
[0] Building level 1
[2] Building level 2
[0] Building level 2
Reconstruction on level 2
Creating AMGLevel 
[0] Building level 3
Reconstruction on level 3
[2] Building level 3
[3] Building level 2
[1] Building level 2
Creating AMGLevel 
[0] Building level 4
Reconstruction on level 4
[2] Building level 4
Creating AMGLevel 
[0] Building level 5
Reconstruction on level 5
[2] Building level 5
[3] Building level 3
[1] Building level 3
Creating AMGLevel 
[0] Building level 6
Reconstruction on level 6
[2] Building level 6
Creating AMGLevel 
[0] Building level 7
Reconstruction on level 7
[2] Building level 7
Creating AMGLevel 
[0] Building level 8
Reconstruction on level 8
[2] Building level 8
Creating AMGLevel 
[0] Building level 9
Reconstruction on level 9
[2] Building level 9
Creating AMGLevel 
[0] Building level 10
Reconstruction on level 10
[2] Building level 10
Creating AMGLevel 
[0] Building level 11
Reconstruction on level 11
[2] Building level 11
Creating AMGLevel 
[0] Building level 12
Reconstruction on level 12
[2] Building level 12
Creating AMGLevel 
[0] Building level 13
Reconstruction on level 13
[2] Building level 13
Creating AMGLevel 
[0] Building level 14
Reconstruction on level 14
[2] Building level 14
Creating AMGLevel 
14 Level construction complete
[3] Building level 4
[1] Building level 4
[3] Building level 5
[1] Building level 5
[3] Building level 6
[1] Building level 6
[3] Building level 7
[1] Building level 7
[3] Building level 8
[1] Building level 8
[3] Building level 9
[3] Building level 10
[1] Building level 9
[3] Building level 11
[3] Building level 12
[1] Building level 10
[3] Building level 13
[3] Building level 14
[1] Building level 11
[1] Building level 12
[1] Building level 13
[1] Building level 14
GPU: 4 iters: 1.16552 s: 2.246 GB/s
PCGAMG:  Solving for pd, Initial residual = 0.00258672, Final residual = 0.000107279, No Iterations 4
[1] Building level 0
[0] Building level 0
[2] Building level 0
[3] Building level 0
[3] Building level 1
[2] Building level 1
[0] Building level 1
[1] Building level 1
[1] Building level 2
[0] Building level 2
[3] Building level 2
[2] Building level 2
[1] Building level 3
[0] Building level 3
[3] Building level 3
[2] Building level 3
[1] Building level 4
[0] Building level 4
[3] Building level 4
[2] Building level 4
[1] Building level 5
[0] Building level 5
[3] Building level 5
[2] Building level 5
[1] Building level 6
[0] Building level 6
[3] Building level 6
[2] Building level 6
[1] Building level 7
[0] Building level 7
[1] Building level 8
[0] Building level 8
[1] Building level 9
[3] Building level 7
[1] Building level 10
[2] Building level 7
[0] Building level 9
[1] Building level 11
[1] Building level 12
[1] Building level 13
[1] Building level 14
[0] Building level 10
[0] Building level 11
[0] Building level 12
[0] Building level 13
[0] Building level 14
14 Level construction complete
[3] Building level 8
[2] Building level 8
[3] Building level 9
[3] Building level 10
[2] Building level 9
[3] Building level 11
[3] Building level 12
[3] Building level 13
[3] Building level 14
[2] Building level 10
[2] Building level 11
[2] Building level 12
[2] Building level 13
[2] Building level 14
GPU: 5 iters: 1.39066 s: 2.35297 GB/s
PCGAMG:  Solving for pd, Initial residual = 0.00100775, Final residual = 4.1148e-05, No Iterations 5
[1] Building level 0
[0] Building level 0
[2] Building level 0
[3] Building level 0
[0] Building level 1
[2] Building level 1
[3] Building level 1
[1] Building level 1
[0] Building level 2
[1] Building level 2
[3] Building level 2
[2] Building level 2
[0] Building level 3
[1] Building level 3
[3] Building level 3
[2] Building level 3
[1] Building level 4
[0] Building level 4
[3] Building level 4
[2] Building level 4
[1] Building level 5
[0] Building level 5
[3] Building level 5
[2] Building level 5
[1] Building level 6
[0] Building level 6
[1] Building level 7
[3] Building level 6
[0] Building level 7
[2] Building level 6
[1] Building level 8
[0] Building level 8
[1] Building level 9
[0] Building level 9
[1] Building level 10
[1] Building level 11
[3] Building level 7
[0] Building level 10
[1] Building level 12
[1] Building level 13
[1] Building level 14
[0] Building level 11
[0] Building level 12
[0] Building level 13
[0] Building level 14
14 Level construction complete
[2] Building level 7
[3] Building level 8
[2] Building level 8
[3] Building level 9
[3] Building level 10
[2] Building level 9
[3] Building level 11
[3] Building level 12
[3] Building level 13
[3] Building level 14
[2] Building level 10
[2] Building level 11
[2] Building level 12
[2] Building level 13
[2] Building level 14
GPU: 14 iters: 3.47601 s: 2.63582 GB/s
PCGAMG:  Solving for pd, Initial residual = 0.000323438, Final residual = 8.71833e-08, No Iterations 14
time step continuity errors : sum local = 3.99577e-12, global = -9.74962e-24, cumulative = -2.02884e-23
ExecutionTime = 631.58 s  ClockTime = 652 s

End

Finalising parallel run
