 Data for JOB [9261,1] offset 0

 ========================   JOB MAP   ========================

 Data for node: ivb112	Num slots: 4	Max slots: 0	Num procs: 4
 	Process OMPI jobid: [9261,1] App: 0 Process rank: 0
 	Process OMPI jobid: [9261,1] App: 0 Process rank: 1
 	Process OMPI jobid: [9261,1] App: 0 Process rank: 2
 	Process OMPI jobid: [9261,1] App: 0 Process rank: 3

 =============================================================
[ivb112:31707] MCW rank 2 bound to socket 0[core 2[hwt 0]]: [././B/././././././.][./././././././././.]
[ivb112:31707] MCW rank 3 bound to socket 0[core 3[hwt 0]]: [./././B/./././././.][./././././././././.]
[ivb112:31707] MCW rank 0 bound to socket 0[core 0[hwt 0]]: [B/././././././././.][./././././././././.]
[ivb112:31707] MCW rank 1 bound to socket 0[core 1[hwt 0]]: [./B/./././././././.][./././././././././.]
/*---------------------------------------------------------------------------*\
| =========                 |                                                 |
| \\      /  F ield         | foam-extend: Open Source CFD                    |
|  \\    /   O peration     | Version:     3.1                                |
|   \\  /    A nd           | Web:         http://www.extend-project.de       |
|    \\/     M anipulation  |                                                 |
\*---------------------------------------------------------------------------*/
Build    : 3.1-e2da948002a2
Exec     : pimpleDyMFoam -parallel
Date     : May 23 2016
Time     : 07:59:40
Host     : ivb112
PID      : 31738
CtrlDict : /home-2/vplatonov/foam/foam-extend-3.1/etc/controlDict
Case     : /home/vplatonov/tests/3D-mesh1-of3.1
nProcs   : 4
Slaves : 
3
(
ivb112.31746
ivb112.31740
ivb112.31749
)

Pstream initialized with:
    floatTransfer     : 0
    nProcsSimpleSum   : 0
    commsType         : blocking
SigFpe   : Enabling floating point exception trapping (FOAM_SIGFPE).

// * * * * * * * * * * * * * * * * * * * * * * * * * * * * * * * * * * * * * //
Create time

Create dynamic mesh for time = 0

Selecting dynamicFvMesh dynamicMotionSolverFvMesh
Selecting motion solver: displacementLaplacian
Selecting motion diffusion: quadratic
Selecting motion diffusion: inverseDistance
Reading field p

Reading field U

Reading/calculating face flux field phi

Selecting incompressible transport model Newtonian
Selecting turbulence model type LESModel
Selecting LES turbulence model oneEqEddy
oneEqEddyCoeffs
{
    ce              1.048;
    ck              0.094;
}

Reading field rAU if present


Starting time loop

Courant Number mean: 0 max: 0.0007592825 velocity magnitude: 0.4779
Reading old state
Before setting displacements
GAMGPCG:  Solving for cellDisplacementx, Initial residual = 0, Final residual = 0, No Iterations 0
GAMGPCG:  Solving for cellDisplacementy, Initial residual = 0, Final residual = 0, No Iterations 0
GAMGPCG:  Solving for cellDisplacementz, Initial residual = 0, Final residual = 0, No Iterations 0
Time = 5e-06

GAMGPCG:  Solving for cellDisplacementx, Initial residual = 0, Final residual = 0, No Iterations 0
GAMGPCG:  Solving for cellDisplacementy, Initial residual = 0, Final residual = 0, No Iterations 0
GAMGPCG:  Solving for cellDisplacementz, Initial residual = 0, Final residual = 0, No Iterations 0
volume continuity errors : volume = 4.535015, max error = 0, sum local = 0, global = 0
smoothSolver:  Solving for Ux, Initial residual = 1, Final residual = 9.457309e-09, No Iterations 1
smoothSolver:  Solving for Uy, Initial residual = 1, Final residual = 1.115892e-08, No Iterations 1
smoothSolver:  Solving for Uz, Initial residual = 0.9999962, Final residual = 4.021583e-08, No Iterations 1
Created persistent data with name p
Computing AINV with droptol 0.02
GPU: 888 iters: 29.03603 s: 44.84871 GB/s
GPUPCG:  Solving for p, Initial residual = 1, Final residual = 0.009845305, No Iterations 888
Computing AINV with droptol 0.02
GPU: 163 iters: 5.465367 s: 43.73635 GB/s
GPUPCG:  Solving for p, Initial residual = 0.0004704174, Final residual = 9.871742e-06, No Iterations 163
time step continuity errors : sum local = 2.222542e-09, global = 9.623274e-12, cumulative = 9.623274e-12
Moving mesh time step continuity errors : sum local = 2.222542e-09, global = 9.623274e-12, cumulative = 1.924655e-11
GPU: 177 iters: 5.886776 s: 44.09304 GB/s
GPUPCG:  Solving for p, Initial residual = 0.0001097093, Final residual = 9.993612e-06, No Iterations 177
GPU: 774 iters: 25.64557 s: 44.25913 GB/s
GPUPCG:  Solving for p, Initial residual = 4.682952e-05, Final residual = 9.996755e-08, No Iterations 774
time step continuity errors : sum local = 2.251823e-11, global = -1.655136e-13, cumulative = 1.908103e-11
Moving mesh time step continuity errors : sum local = 2.251823e-11, global = -1.655136e-13, cumulative = 1.891552e-11
smoothSolver:  Solving for k, Initial residual = 1, Final residual = 1.495225e-11, No Iterations 2
ExecutionTime = 216.02 s  ClockTime = 219 s

Courant Number mean: 7.684084e-05 max: 0.002865093 velocity magnitude: 0.9551001
yForce = -0.4211473
Y= -6.502034e-13
Vy= -2.600811e-07
Time = 1e-05

GAMGPCG:  Solving for cellDisplacementx, Initial residual = 0, Final residual = 0, No Iterations 0
GAMGPCG:  Solving for cellDisplacementy, Initial residual = 1, Final residual = 1.450689e-09, No Iterations 1
GAMGPCG:  Solving for cellDisplacementz, Initial residual = 0, Final residual = 0, No Iterations 0
volume continuity errors : volume = 4.535015, max error = 9.448499e-09, sum local = 5.505391e-15, global = 3.395455e-18
smoothSolver:  Solving for Ux, Initial residual = 0.9975511, Final residual = 5.468291e-07, No Iterations 1
smoothSolver:  Solving for Uy, Initial residual = 0.33333, Final residual = 1.328094e-06, No Iterations 1
smoothSolver:  Solving for Uz, Initial residual = 0.3333445, Final residual = 7.35519e-07, No Iterations 1
GPU: 902 iters: 29.85046 s: 44.31285 GB/s
GPUPCG:  Solving for p, Initial residual = 0.003643813, Final residual = 3.511088e-05, No Iterations 902
GPU: 242 iters: 8.058765 s: 44.03735 GB/s
GPUPCG:  Solving for p, Initial residual = 0.001403019, Final residual = 1.402669e-05, No Iterations 242
time step continuity errors : sum local = 1.054339e-09, global = -4.444473e-13, cumulative = 1.847107e-11
Moving mesh time step continuity errors : sum local = 1.054339e-09, global = -4.444473e-13, cumulative = 1.802663e-11
GPU: 354 iters: 11.78478 s: 44.05102 GB/s
GPUPCG:  Solving for p, Initial residual = 0.0003137284, Final residual = 9.984812e-06, No Iterations 354
GPU: 808 iters: 26.75468 s: 44.28798 GB/s
GPUPCG:  Solving for p, Initial residual = 0.000118807, Final residual = 9.987735e-08, No Iterations 808
time step continuity errors : sum local = 7.499623e-12, global = -2.997926e-14, cumulative = 1.799665e-11
Moving mesh time step continuity errors : sum local = 7.499623e-12, global = -2.997926e-14, cumulative = 1.796667e-11
smoothSolver:  Solving for k, Initial residual = 0.008780198, Final residual = 3.633513e-09, No Iterations 1
ExecutionTime = 338.28 s  ClockTime = 342 s

Courant Number mean: 7.684303e-05 max: 0.00285692 velocity magnitude: 0.9523756
yForce = 0.8246
Y= -6.775199e-13
Vy= 2.491541e-07
Time = 1.5e-05

GAMGPCG:  Solving for cellDisplacementx, Initial residual = 0, Final residual = 0, No Iterations 0
GAMGPCG:  Solving for cellDisplacementy, Initial residual = 0.04764654, Final residual = 1.362966e-09, No Iterations 1
GAMGPCG:  Solving for cellDisplacementz, Initial residual = 0, Final residual = 0, No Iterations 0
volume continuity errors : volume = 4.535015, max error = 9.024652e-09, sum local = 6.138509e-15, global = -9.212619e-18
smoothSolver:  Solving for Ux, Initial residual = 0.9921627, Final residual = 5.446624e-07, No Iterations 1
smoothSolver:  Solving for Uy, Initial residual = 0.1847543, Final residual = 8.091181e-07, No Iterations 1
smoothSolver:  Solving for Uz, Initial residual = 0.7659055, Final residual = 1.471369e-06, No Iterations 1
GPU: 898 iters: 29.80809 s: 44.17905 GB/s
GPUPCG:  Solving for p, Initial residual = 0.00280074, Final residual = 2.767425e-05, No Iterations 898
GPU: 237 iters: 7.894825 s: 44.02305 GB/s
GPUPCG:  Solving for p, Initial residual = 0.09907265, Final residual = 0.0009892649, No Iterations 237
time step continuity errors : sum local = 3.456892e-10, global = 3.070851e-13, cumulative = 1.827375e-11
Moving mesh time step continuity errors : sum local = 3.456892e-10, global = 3.070851e-13, cumulative = 1.858084e-11
GPU: 502 iters: 16.70627 s: 44.06547 GB/s
GPUPCG:  Solving for p, Initial residual = 0.02243121, Final residual = 0.0002235401, No Iterations 502
GPU: 1000 iters: 33.22612 s: 44.13617 GB/s
GPUPCG:  Solving for p, Initial residual = 0.007543416, Final residual = 1.157517e-07, No Iterations 1000
time step continuity errors : sum local = 3.6748e-14, global = -4.90833e-17, cumulative = 1.858079e-11
Moving mesh time step continuity errors : sum local = 3.6748e-14, global = -4.90833e-17, cumulative = 1.858074e-11
smoothSolver:  Solving for k, Initial residual = 0.003835062, Final residual = 1.512661e-09, No Iterations 1
ExecutionTime = 472.58 s  ClockTime = 477 s

Courant Number mean: 7.684352e-05 max: 0.002858857 velocity magnitude: 0.9530213
yForce = -0.2338542
Y= 2.072056e-13
Vy= 1.047362e-07
Time = 2e-05

GAMGPCG:  Solving for cellDisplacementx, Initial residual = 0, Final residual = 0, No Iterations 0
GAMGPCG:  Solving for cellDisplacementy, Initial residual = 1, Final residual = 1.467384e-09, No Iterations 1
GAMGPCG:  Solving for cellDisplacementz, Initial residual = 0, Final residual = 0, No Iterations 0
volume continuity errors : volume = 4.535015, max error = 8.877075e-09, sum local = 6.003297e-15, global = 4.513186e-18
smoothSolver:  Solving for Ux, Initial residual = 0.05066619, Final residual = 5.020199e-08, No Iterations 1
smoothSolver:  Solving for Uy, Initial residual = 0.0131991, Final residual = 8.927291e-08, No Iterations 1
smoothSolver:  Solving for Uz, Initial residual = 0.9166212, Final residual = 1.778461e-06, No Iterations 1
GPU: 114 iters: 3.783773 s: 44.18288 GB/s
GPUPCG:  Solving for p, Initial residual = 0.2265805, Final residual = 0.002229356, No Iterations 114
GPU: 422 iters: 14.0424 s: 44.07022 GB/s
GPUPCG:  Solving for p, Initial residual = 0.01253285, Final residual = 0.0001241806, No Iterations 422
time step continuity errors : sum local = 3.350131e-11, global = -3.513192e-12, cumulative = 1.506755e-11
Moving mesh time step continuity errors : sum local = 3.350131e-11, global = -3.513192e-12, cumulative = 1.155436e-11
GPU: 625 iters: 20.71574 s: 44.24394 GB/s
GPUPCG:  Solving for p, Initial residual = 0.004239486, Final residual = 4.184959e-05, No Iterations 625
GPU: 863 iters: 28.58331 s: 44.27643 GB/s
GPUPCG:  Solving for p, Initial residual = 0.001800955, Final residual = 9.726428e-08, No Iterations 863
time step continuity errors : sum local = 2.608344e-14, global = 8.076683e-17, cumulative = 1.155444e-11
Moving mesh time step continuity errors : sum local = 2.608344e-14, global = 8.076683e-17, cumulative = 1.155452e-11
smoothSolver:  Solving for k, Initial residual = 0.002273124, Final residual = 8.911666e-10, No Iterations 1
ExecutionTime = 587.46 s  ClockTime = 593 s

Courant Number mean: 7.684408e-05 max: 0.002856742 velocity magnitude: 0.9523163
yForce = -0.03829826
Y= 6.717582e-13
Vy= 8.108482e-08
Time = 2.5e-05

GAMGPCG:  Solving for cellDisplacementx, Initial residual = 0, Final residual = 0, No Iterations 0
GAMGPCG:  Solving for cellDisplacementy, Initial residual = 0.6446072, Final residual = 1.647668e-09, No Iterations 1
GAMGPCG:  Solving for cellDisplacementz, Initial residual = 0, Final residual = 0, No Iterations 0
volume continuity errors : volume = 4.535015, max error = 9.482974e-09, sum local = 6.215329e-15, global = 3.211006e-19
smoothSolver:  Solving for Ux, Initial residual = 0.0270726, Final residual = 1.788398e-08, No Iterations 1
smoothSolver:  Solving for Uy, Initial residual = 0.004555683, Final residual = 3.135357e-08, No Iterations 1
smoothSolver:  Solving for Uz, Initial residual = 0.7333409, Final residual = 1.917875e-06, No Iterations 1
GPU: 35 iters: 1.185283 s: 43.30321 GB/s
GPUPCG:  Solving for p, Initial residual = 0.1533823, Final residual = 0.001491563, No Iterations 35
GPU: 480 iters: 15.93419 s: 44.1759 GB/s
GPUPCG:  Solving for p, Initial residual = 0.003925402, Final residual = 3.920923e-05, No Iterations 480
time step continuity errors : sum local = 9.323547e-12, global = 8.537221e-13, cumulative = 1.240824e-11
Moving mesh time step continuity errors : sum local = 9.323547e-12, global = 8.537221e-13, cumulative = 1.326196e-11
GPU: 635 iters: 21.03579 s: 44.26793 GB/s
GPUPCG:  Solving for p, Initial residual = 0.001010932, Final residual = 1.005418e-05, No Iterations 635
GPU: 814 iters: 26.94972 s: 44.29395 GB/s
GPUPCG:  Solving for p, Initial residual = 0.0003984171, Final residual = 9.94434e-08, No Iterations 814
time step continuity errors : sum local = 2.356699e-14, global = -4.978203e-17, cumulative = 1.326191e-11
Moving mesh time step continuity errors : sum local = 2.356699e-14, global = -4.978203e-17, cumulative = 1.326186e-11
smoothSolver:  Solving for k, Initial residual = 0.001554792, Final residual = 6.189836e-10, No Iterations 1
ExecutionTime = 700.4 s  ClockTime = 706 s

Courant Number mean: 7.684421e-05 max: 0.002854608 velocity magnitude: 0.9516049
yForce = 0.09141013
Y= 1.218309e-12
Vy= 1.375354e-07
Time = 3e-05

GAMGPCG:  Solving for cellDisplacementx, Initial residual = 0, Final residual = 0, No Iterations 0
GAMGPCG:  Solving for cellDisplacementy, Initial residual = 0.5150416, Final residual = 6.863331e-10, No Iterations 1
GAMGPCG:  Solving for cellDisplacementz, Initial residual = 0, Final residual = 0, No Iterations 0
volume continuity errors : volume = 4.535015, max error = 1.022589e-08, sum local = 6.32497e-15, global = -5.374617e-18
smoothSolver:  Solving for Ux, Initial residual = 0.01761465, Final residual = 8.841765e-09, No Iterations 1
smoothSolver:  Solving for Uy, Initial residual = 0.001237649, Final residual = 1.695744e-08, No Iterations 1
smoothSolver:  Solving for Uz, Initial residual = 0.2725139, Final residual = 1.603882e-06, No Iterations 1
GPU: 5 iters: 0.2070237 s: 35.41802 GB/s
GPUPCG:  Solving for p, Initial residual = 0.1088628, Final residual = 0.0008523008, No Iterations 5
GPU: 179 iters: 5.964656 s: 44.00904 GB/s
GPUPCG:  Solving for p, Initial residual = 0.001575485, Final residual = 1.566098e-05, No Iterations 179
time step continuity errors : sum local = 3.359783e-12, global = -1.174411e-16, cumulative = 1.326174e-11
Moving mesh time step continuity errors : sum local = 3.359783e-12, global = -1.174411e-16, cumulative = 1.326163e-11
GPU: 36 iters: 1.234783 s: 42.75491 GB/s
GPUPCG:  Solving for p, Initial residual = 0.0002999091, Final residual = 9.677428e-06, No Iterations 36
GPU: 793 iters: 26.28431 s: 44.24364 GB/s
GPUPCG:  Solving for p, Initial residual = 0.0001178844, Final residual = 9.934339e-08, No Iterations 793
time step continuity errors : sum local = 2.130324e-14, global = -1.094587e-16, cumulative = 1.326152e-11
Moving mesh time step continuity errors : sum local = 2.130324e-14, global = -1.094587e-16, cumulative = 1.326141e-11
smoothSolver:  Solving for k, Initial residual = 0.001156912, Final residual = 4.665174e-10, No Iterations 1
ExecutionTime = 781.87 s  ClockTime = 788 s

Courant Number mean: 7.684431e-05 max: 0.002852247 velocity magnitude: 0.9508176
yForce = -0.04612595
Y= 1.834772e-12
Vy= 1.090499e-07
Time = 3.5e-05

GAMGPCG:  Solving for cellDisplacementx, Initial residual = 0, Final residual = 0, No Iterations 0
GAMGPCG:  Solving for cellDisplacementy, Initial residual = 0.4036431, Final residual = 6.346628e-10, No Iterations 1
GAMGPCG:  Solving for cellDisplacementz, Initial residual = 0, Final residual = 0, No Iterations 0
volume continuity errors : volume = 4.535015, max error = 9.859831e-09, sum local = 6.412542e-15, global = 3.001245e-18
smoothSolver:  Solving for Ux, Initial residual = 0.01352744, Final residual = 6.756786e-09, No Iterations 1
smoothSolver:  Solving for Uy, Initial residual = 0.0009592075, Final residual = 1.255602e-08, No Iterations 1
smoothSolver:  Solving for Uz, Initial residual = 0.1962117, Final residual = 1.302776e-06, No Iterations 1
GPU: 3 iters: 0.139484 s: 31.54068 GB/s
GPUPCG:  Solving for p, Initial residual = 0.09114931, Final residual = 0.0007130395, No Iterations 3
GPU: 135 iters: 4.502181 s: 43.9729 GB/s
GPUPCG:  Solving for p, Initial residual = 0.0008944615, Final residual = 9.958504e-06, No Iterations 135
time step continuity errors : sum local = 1.961951e-12, global = 3.896368e-17, cumulative = 1.326145e-11
Moving mesh time step continuity errors : sum local = 1.961951e-12, global = 3.896368e-17, cumulative = 1.326149e-11
GPU: 35 iters: 1.193152 s: 43.01765 GB/s
GPUPCG:  Solving for p, Initial residual = 9.217443e-05, Final residual = 9.691e-06, No Iterations 35
GPU: 758 iters: 25.18127 s: 44.1434 GB/s
GPUPCG:  Solving for p, Initial residual = 3.316068e-05, Final residual = 9.961022e-08, No Iterations 758
time step continuity errors : sum local = 1.961912e-14, global = -3.683461e-17, cumulative = 1.326145e-11
Moving mesh time step continuity errors : sum local = 1.961912e-14, global = -3.683461e-17, cumulative = 1.326141e-11
smoothSolver:  Solving for k, Initial residual = 0.0009097413, Final residual = 3.836234e-10, No Iterations 1
ExecutionTime = 861.15 s  ClockTime = 868 s

Courant Number mean: 7.684436e-05 max: 0.002849501 velocity magnitude: 0.9499023
yForce = -0.009092212
Y= 2.365984e-12
Vy= 1.034348e-07
Time = 4e-05

GAMGPCG:  Solving for cellDisplacementx, Initial residual = 0, Final residual = 0, No Iterations 0
GAMGPCG:  Solving for cellDisplacementy, Initial residual = 0.2894463, Final residual = 4.384264e-10, No Iterations 1
GAMGPCG:  Solving for cellDisplacementz, Initial residual = 0, Final residual = 0, No Iterations 0
volume continuity errors : volume = 4.535015, max error = 1.054351e-08, sum local = 6.482792e-15, global = -3.776145e-18
smoothSolver:  Solving for Ux, Initial residual = 0.01095195, Final residual = 5.434519e-09, No Iterations 1
smoothSolver:  Solving for Uy, Initial residual = 0.0008075868, Final residual = 9.9895e-09, No Iterations 1
smoothSolver:  Solving for Uz, Initial residual = 0.1771035, Final residual = 1.24549e-06, No Iterations 1
GPU: 3 iters: 0.1395921 s: 31.51626 GB/s
GPUPCG:  Solving for p, Initial residual = 0.07497268, Final residual = 0.0003261853, No Iterations 3
GPU: 53 iters: 1.805309 s: 43.05252 GB/s
GPUPCG:  Solving for p, Initial residual = 0.0004719765, Final residual = 9.690331e-06, No Iterations 53
time step continuity errors : sum local = 1.773463e-12, global = -1.058631e-17, cumulative = 1.32614e-11
Moving mesh time step continuity errors : sum local = 1.773463e-12, global = -1.058631e-17, cumulative = 1.326139e-11
GPU: 6 iters: 0.2370918 s: 37.11154 GB/s
GPUPCG:  Solving for p, Initial residual = 3.892247e-05, Final residual = 9.008065e-06, No Iterations 6
GPU: 736 iters: 24.41175 s: 44.21332 GB/s
GPUPCG:  Solving for p, Initial residual = 1.511067e-05, Final residual = 9.993739e-08, No Iterations 736
time step continuity errors : sum local = 1.828803e-14, global = -2.009509e-16, cumulative = 1.326119e-11
Moving mesh time step continuity errors : sum local = 1.828803e-14, global = -2.009509e-16, cumulative = 1.326099e-11
smoothSolver:  Solving for k, Initial residual = 0.0007436919, Final residual = 3.25049e-10, No Iterations 1
ExecutionTime = 934.16 s  ClockTime = 941 s

Courant Number mean: 7.684438e-05 max: 0.002846381 velocity magnitude: 0.9488623
yForce = 0.02396189
Y= 2.920152e-12
Vy= 1.182324e-07
Time = 4.5e-05

GAMGPCG:  Solving for cellDisplacementx, Initial residual = 0, Final residual = 0, No Iterations 0
GAMGPCG:  Solving for cellDisplacementy, Initial residual = 0.2516891, Final residual = 3.477128e-10, No Iterations 1
GAMGPCG:  Solving for cellDisplacementz, Initial residual = 0, Final residual = 0, No Iterations 0
volume continuity errors : volume = 4.535015, max error = 9.097476e-09, sum local = 6.472987e-15, global = -1.466595e-18
smoothSolver:  Solving for Ux, Initial residual = 0.00935643, Final residual = 4.558705e-09, No Iterations 1
smoothSolver:  Solving for Uy, Initial residual = 0.0006791298, Final residual = 8.215631e-09, No Iterations 1
smoothSolver:  Solving for Uz, Initial residual = 0.1558628, Final residual = 1.057384e-06, No Iterations 1
GPU: 3 iters: 0.1387545 s: 31.70652 GB/s
GPUPCG:  Solving for p, Initial residual = 0.0627694, Final residual = 0.0002642834, No Iterations 3
GPU: 24 iters: 0.8328564 s: 42.25863 GB/s
GPUPCG:  Solving for p, Initial residual = 0.0003714749, Final residual = 9.539701e-06, No Iterations 24
time step continuity errors : sum local = 1.636077e-12, global = -3.435635e-16, cumulative = 1.326065e-11
Moving mesh time step continuity errors : sum local = 1.636077e-12, global = -3.435635e-16, cumulative = 1.32603e-11
GPU: 1 iters: 0.07220567 s: 20.30968 GB/s
GPUPCG:  Solving for p, Initial residual = 2.507197e-05, Final residual = 9.639182e-06, No Iterations 1
GPU: 504 iters: 16.7276 s: 44.18461 GB/s
GPUPCG:  Solving for p, Initial residual = 1.079154e-05, Final residual = 9.922203e-08, No Iterations 504
time step continuity errors : sum local = 1.701582e-14, global = 1.688425e-15, cumulative = 1.326199e-11
Moving mesh time step continuity errors : sum local = 1.701582e-14, global = 1.688425e-15, cumulative = 1.326368e-11
smoothSolver:  Solving for k, Initial residual = 0.0006255962, Final residual = 2.837689e-10, No Iterations 1
ExecutionTime = 1000.16 s  ClockTime = 1007 s

Courant Number mean: 7.684437e-05 max: 0.00284288 velocity magnitude: 0.9482452
yForce = -0.01145064
Y= 3.493635e-12
Vy= 1.111609e-07
Time = 5e-05

GAMGPCG:  Solving for cellDisplacementx, Initial residual = 0, Final residual = 0, No Iterations 0
GAMGPCG:  Solving for cellDisplacementy, Initial residual = 0.2207819, Final residual = 3.00716e-10, No Iterations 1
GAMGPCG:  Solving for cellDisplacementz, Initial residual = 0, Final residual = 0, No Iterations 0
volume continuity errors : volume = 4.535015, max error = 1.215105e-08, sum local = 6.487256e-15, global = 3.548743e-18
slurmstepd: *** JOB 7210 ON ivb112 CANCELLED AT 2016-05-23T08:16:50 DUE TO TIME LIMIT ***
