 Data for JOB [57049,1] offset 0

 ========================   JOB MAP   ========================

 Data for node: ivb112	Num slots: 6	Max slots: 0	Num procs: 6
 	Process OMPI jobid: [57049,1] App: 0 Process rank: 0
 	Process OMPI jobid: [57049,1] App: 0 Process rank: 1
 	Process OMPI jobid: [57049,1] App: 0 Process rank: 2
 	Process OMPI jobid: [57049,1] App: 0 Process rank: 3
 	Process OMPI jobid: [57049,1] App: 0 Process rank: 4
 	Process OMPI jobid: [57049,1] App: 0 Process rank: 5

 =============================================================
[ivb112:33071] MCW rank 3 bound to socket 0[core 3[hwt 0]]: [./././B/./././././.][./././././././././.]
[ivb112:33071] MCW rank 4 bound to socket 0[core 4[hwt 0]]: [././././B/././././.][./././././././././.]
[ivb112:33071] MCW rank 5 bound to socket 0[core 5[hwt 0]]: [./././././B/./././.][./././././././././.]
[ivb112:33071] MCW rank 0 bound to socket 0[core 0[hwt 0]]: [B/././././././././.][./././././././././.]
[ivb112:33071] MCW rank 1 bound to socket 0[core 1[hwt 0]]: [./B/./././././././.][./././././././././.]
[ivb112:33071] MCW rank 2 bound to socket 0[core 2[hwt 0]]: [././B/././././././.][./././././././././.]
0
1
2
3
4
5
/*---------------------------------------------------------------------------*\
| =========                 |                                                 |
| \\      /  F ield         | foam-extend: Open Source CFD                    |
|  \\    /   O peration     | Version:     3.1                                |
|   \\  /    A nd           | Web:         http://www.extend-project.de       |
|    \\/     M anipulation  |                                                 |
\*---------------------------------------------------------------------------*/
Build    : 3.1-e2da948002a2
Exec     : pimpleDyMFoam -parallel
Date     : May 23 2016
Time     : 08:44:17
Host     : ivb112
PID      : 33127
CtrlDict : /home-2/vplatonov/foam/foam-extend-3.1/etc/controlDict
Case     : /home/vplatonov/tests/3D-mesh1-of3.1
nProcs   : 6
Slaves : 
5
(
ivb112.33116
ivb112.33117
ivb112.33133
ivb112.33138
ivb112.33121
)

Pstream initialized with:
    floatTransfer     : 0
    nProcsSimpleSum   : 0
    commsType         : blocking
SigFpe   : Enabling floating point exception trapping (FOAM_SIGFPE).

// * * * * * * * * * * * * * * * * * * * * * * * * * * * * * * * * * * * * * //
Create time

Create dynamic mesh for time = 0

Selecting dynamicFvMesh dynamicMotionSolverFvMesh
Selecting motion solver: displacementLaplacian
Selecting motion diffusion: quadratic
Selecting motion diffusion: inverseDistance
Reading field p

Reading field U

Reading/calculating face flux field phi

Selecting incompressible transport model Newtonian
Selecting turbulence model type LESModel
Selecting LES turbulence model oneEqEddy
oneEqEddyCoeffs
{
    ce              1.048;
    ck              0.094;
}

Reading field rAU if present


Starting time loop

Courant Number mean: 0 max: 0.0007592825 velocity magnitude: 0.4779
Reading old state
Before setting displacements
GAMGPCG:  Solving for cellDisplacementx, Initial residual = 0, Final residual = 0, No Iterations 0
GAMGPCG:  Solving for cellDisplacementy, Initial residual = 0, Final residual = 0, No Iterations 0
GAMGPCG:  Solving for cellDisplacementz, Initial residual = 0, Final residual = 0, No Iterations 0
Time = 5e-06

GAMGPCG:  Solving for cellDisplacementx, Initial residual = 0, Final residual = 0, No Iterations 0
GAMGPCG:  Solving for cellDisplacementy, Initial residual = 0, Final residual = 0, No Iterations 0
GAMGPCG:  Solving for cellDisplacementz, Initial residual = 0, Final residual = 0, No Iterations 0
volume continuity errors : volume = 4.535015, max error = 0, sum local = 0, global = 0
smoothSolver:  Solving for Ux, Initial residual = 1, Final residual = 2.285051e-08, No Iterations 1
smoothSolver:  Solving for Uy, Initial residual = 1, Final residual = 2.172388e-08, No Iterations 1
smoothSolver:  Solving for Uz, Initial residual = 0.9999962, Final residual = 4.2334e-08, No Iterations 1
Created persistent data with name p
Computing AINV with droptol 0.02
GPU: 692 iters: 15.58112 s: 44.39805 GB/s
GPUPCG:  Solving for p, Initial residual = 1, Final residual = 0.009889851, No Iterations 692
Computing AINV with droptol 0.02
GPU: 156 iters: 3.674995 s: 42.43501 GB/s
GPUPCG:  Solving for p, Initial residual = 0.0004704348, Final residual = 9.838837e-06, No Iterations 156
time step continuity errors : sum local = 2.215127e-09, global = -1.902836e-12, cumulative = -1.902836e-12
Moving mesh time step continuity errors : sum local = 2.215127e-09, global = -1.902836e-12, cumulative = -3.805673e-12
GPU: 142 iters: 3.340452 s: 42.49518 GB/s
GPUPCG:  Solving for p, Initial residual = 0.0001093884, Final residual = 9.974245e-06, No Iterations 142
GPU: 724 iters: 16.81933 s: 43.0315 GB/s
GPUPCG:  Solving for p, Initial residual = 4.65354e-05, Final residual = 9.942213e-08, No Iterations 724
time step continuity errors : sum local = 2.239531e-11, global = -1.635233e-13, cumulative = -3.969196e-12
Moving mesh time step continuity errors : sum local = 2.239531e-11, global = -1.635233e-13, cumulative = -4.132719e-12
smoothSolver:  Solving for k, Initial residual = 1, Final residual = 1.260062e-11, No Iterations 2
ExecutionTime = 150.17 s  ClockTime = 151 s

Courant Number mean: 7.683021e-05 max: 0.002865071 velocity magnitude: 0.9550926
yForce = -0.8303121
Y= -1.281907e-12
Vy= -5.127624e-07
Time = 1e-05

GAMGPCG:  Solving for cellDisplacementx, Initial residual = 0, Final residual = 0, No Iterations 0
GAMGPCG:  Solving for cellDisplacementy, Initial residual = 1, Final residual = 3.30999e-09, No Iterations 1
GAMGPCG:  Solving for cellDisplacementz, Initial residual = 0, Final residual = 0, No Iterations 0
volume continuity errors : volume = 4.535015, max error = 7.943239e-09, sum local = 5.962631e-15, global = -2.209949e-18
smoothSolver:  Solving for Ux, Initial residual = 0.9975505, Final residual = 4.958092e-07, No Iterations 1
smoothSolver:  Solving for Uy, Initial residual = 0.3333301, Final residual = 1.449489e-06, No Iterations 1
smoothSolver:  Solving for Uz, Initial residual = 0.2859573, Final residual = 7.804083e-07, No Iterations 1
GPU: 694 iters: 16.18008 s: 42.87807 GB/s
GPUPCG:  Solving for p, Initial residual = 0.003643889, Final residual = 3.476665e-05, No Iterations 694
GPU: 228 iters: 5.322643 s: 42.82172 GB/s
GPUPCG:  Solving for p, Initial residual = 0.001402084, Final residual = 1.392197e-05, No Iterations 228
time step continuity errors : sum local = 1.046462e-09, global = -7.710287e-13, cumulative = -4.903748e-12
Moving mesh time step continuity errors : sum local = 1.046462e-09, global = -7.710287e-13, cumulative = -5.674777e-12
GPU: 299 iters: 6.996657 s: 42.72058 GB/s
GPUPCG:  Solving for p, Initial residual = 0.0003132112, Final residual = 9.919988e-06, No Iterations 299
GPU: 668 iters: 15.55454 s: 42.93149 GB/s
GPUPCG:  Solving for p, Initial residual = 0.0001184425, Final residual = 9.803638e-08, No Iterations 668
time step continuity errors : sum local = 7.361356e-12, global = -7.121126e-14, cumulative = -5.745988e-12
Moving mesh time step continuity errors : sum local = 7.361356e-12, global = -7.121126e-14, cumulative = -5.817199e-12
smoothSolver:  Solving for k, Initial residual = 0.008780206, Final residual = 4.661448e-09, No Iterations 1
ExecutionTime = 226.14 s  ClockTime = 228 s

Courant Number mean: 7.683241e-05 max: 0.002856927 velocity magnitude: 0.9523778
yForce = 1.375403
Y= -1.722253e-12
Vy= 3.366235e-07
Time = 1.5e-05

GAMGPCG:  Solving for cellDisplacementx, Initial residual = 0, Final residual = 0, No Iterations 0
GAMGPCG:  Solving for cellDisplacementy, Initial residual = 0.2988769, Final residual = 1.749267e-09, No Iterations 1
GAMGPCG:  Solving for cellDisplacementz, Initial residual = 0, Final residual = 0, No Iterations 0
volume continuity errors : volume = 4.535015, max error = 9.12333e-09, sum local = 6.566294e-15, global = -5.743748e-18
smoothSolver:  Solving for Ux, Initial residual = 0.9921624, Final residual = 4.935555e-07, No Iterations 1
smoothSolver:  Solving for Uy, Initial residual = 0.1847449, Final residual = 8.692919e-07, No Iterations 1
smoothSolver:  Solving for Uz, Initial residual = 0.7768813, Final residual = 1.877334e-06, No Iterations 1
GPU: 691 iters: 16.12899 s: 42.82795 GB/s
GPUPCG:  Solving for p, Initial residual = 0.00280082, Final residual = 2.69413e-05, No Iterations 691
GPU: 227 iters: 5.307735 s: 42.75365 GB/s
GPUPCG:  Solving for p, Initial residual = 0.09883453, Final residual = 0.0009877974, No Iterations 227
time step continuity errors : sum local = 3.452917e-10, global = 2.579857e-13, cumulative = -5.559213e-12
Moving mesh time step continuity errors : sum local = 3.452917e-10, global = 2.579857e-13, cumulative = -5.301228e-12
GPU: 414 iters: 9.652314 s: 42.8771 GB/s
GPUPCG:  Solving for p, Initial residual = 0.02238922, Final residual = 0.0002229741, No Iterations 414
GPU: 885 iters: 20.61552 s: 42.91465 GB/s
GPUPCG:  Solving for p, Initial residual = 0.007526618, Final residual = 9.806923e-08, No Iterations 885
time step continuity errors : sum local = 3.115789e-14, global = -1.53769e-16, cumulative = -5.301382e-12
Moving mesh time step continuity errors : sum local = 3.115789e-14, global = -1.53769e-16, cumulative = -5.301535e-12
smoothSolver:  Solving for k, Initial residual = 0.003835062, Final residual = 2.145949e-09, No Iterations 1
ExecutionTime = 310.09 s  ClockTime = 312 s

Courant Number mean: 7.683292e-05 max: 0.002858857 velocity magnitude: 0.9530211
yForce = -0.01656242
Y= -6.470689e-14
Vy= 3.263948e-07
Time = 2e-05

GAMGPCG:  Solving for cellDisplacementx, Initial residual = 0, Final residual = 0, No Iterations 0
GAMGPCG:  Solving for cellDisplacementy, Initial residual = 1, Final residual = 3.330997e-09, No Iterations 1
GAMGPCG:  Solving for cellDisplacementz, Initial residual = 0, Final residual = 0, No Iterations 0
volume continuity errors : volume = 4.535015, max error = 8.785215e-09, sum local = 6.562297e-15, global = 2.870771e-19
smoothSolver:  Solving for Ux, Initial residual = 0.05066658, Final residual = 5.138694e-08, No Iterations 1
smoothSolver:  Solving for Uy, Initial residual = 0.01317628, Final residual = 9.316197e-08, No Iterations 1
smoothSolver:  Solving for Uz, Initial residual = 0.9126939, Final residual = 2.265711e-06, No Iterations 1
GPU: 104 iters: 2.475551 s: 41.99697 GB/s
GPUPCG:  Solving for p, Initial residual = 0.2265681, Final residual = 0.002257816, No Iterations 104
GPU: 349 iters: 8.203499 s: 42.52877 GB/s
GPUPCG:  Solving for p, Initial residual = 0.01254719, Final residual = 0.0001250632, No Iterations 349
time step continuity errors : sum local = 3.373797e-11, global = -3.041954e-12, cumulative = -8.343489e-12
Moving mesh time step continuity errors : sum local = 3.373797e-11, global = -3.041954e-12, cumulative = -1.138544e-11
GPU: 552 iters: 12.93308 s: 42.66717 GB/s
GPUPCG:  Solving for p, Initial residual = 0.004237652, Final residual = 4.195835e-05, No Iterations 552
GPU: 812 iters: 19.02031 s: 42.67711 GB/s
GPUPCG:  Solving for p, Initial residual = 0.001800584, Final residual = 9.755628e-08, No Iterations 812
time step continuity errors : sum local = 2.616102e-14, global = -1.111835e-16, cumulative = -1.138555e-11
Moving mesh time step continuity errors : sum local = 2.616102e-14, global = -1.111835e-16, cumulative = -1.138566e-11
smoothSolver:  Solving for k, Initial residual = 0.002273126, Final residual = 1.353315e-09, No Iterations 1
ExecutionTime = 384.55 s  ClockTime = 387 s

Courant Number mean: 7.683347e-05 max: 0.002856743 velocity magnitude: 0.9523164
yForce = -0.326512
Y= 1.063169e-12
Vy= 1.247556e-07
Time = 2.5e-05

GAMGPCG:  Solving for cellDisplacementx, Initial residual = 0, Final residual = 0, No Iterations 0
GAMGPCG:  Solving for cellDisplacementy, Initial residual = 0.8749671, Final residual = 3.39896e-09, No Iterations 1
GAMGPCG:  Solving for cellDisplacementz, Initial residual = 0, Final residual = 0, No Iterations 0
volume continuity errors : volume = 4.535015, max error = 8.696527e-09, sum local = 6.604455e-15, global = 5.405274e-18
smoothSolver:  Solving for Ux, Initial residual = 0.02706953, Final residual = 1.795773e-08, No Iterations 1
smoothSolver:  Solving for Uy, Initial residual = 0.004546775, Final residual = 3.169737e-08, No Iterations 1
smoothSolver:  Solving for Uz, Initial residual = 0.7639341, Final residual = 2.55711e-06, No Iterations 1
GPU: 29 iters: 0.716543 s: 40.45873 GB/s
GPUPCG:  Solving for p, Initial residual = 0.1533795, Final residual = 0.001460794, No Iterations 29
GPU: 389 iters: 9.131555 s: 42.58546 GB/s
GPUPCG:  Solving for p, Initial residual = 0.003850272, Final residual = 3.835291e-05, No Iterations 389
time step continuity errors : sum local = 9.117872e-12, global = 6.389829e-13, cumulative = -1.074668e-11
Moving mesh time step continuity errors : sum local = 9.117872e-12, global = 6.389829e-13, cumulative = -1.01077e-11
GPU: 566 iters: 13.23994 s: 42.73531 GB/s
GPUPCG:  Solving for p, Initial residual = 0.001012534, Final residual = 1.009969e-05, No Iterations 566
GPU: 773 iters: 18.11944 s: 42.64726 GB/s
GPUPCG:  Solving for p, Initial residual = 0.0003968219, Final residual = 9.994422e-08, No Iterations 773
time step continuity errors : sum local = 2.368557e-14, global = -1.11393e-17, cumulative = -1.010771e-11
Moving mesh time step continuity errors : sum local = 2.368557e-14, global = -1.11393e-17, cumulative = -1.010772e-11
smoothSolver:  Solving for k, Initial residual = 0.001554793, Final residual = 9.811257e-10, No Iterations 1
ExecutionTime = 457.26 s  ClockTime = 460 s

Courant Number mean: 7.68336e-05 max: 0.002854609 velocity magnitude: 0.9516052
yForce = 0.217553
Y= 2.022823e-12
Vy= 2.591061e-07
Time = 3e-05

GAMGPCG:  Solving for cellDisplacementx, Initial residual = 0, Final residual = 0, No Iterations 0
GAMGPCG:  Solving for cellDisplacementy, Initial residual = 0.5157526, Final residual = 1.824069e-09, No Iterations 1
GAMGPCG:  Solving for cellDisplacementz, Initial residual = 0, Final residual = 0, No Iterations 0
volume continuity errors : volume = 4.535015, max error = 7.917496e-09, sum local = 6.648911e-15, global = 2.31879e-19
smoothSolver:  Solving for Ux, Initial residual = 0.01761464, Final residual = 8.811013e-09, No Iterations 1
smoothSolver:  Solving for Uy, Initial residual = 0.001237492, Final residual = 1.62079e-08, No Iterations 1
smoothSolver:  Solving for Uz, Initial residual = 0.385283, Final residual = 2.545457e-06, No Iterations 1
GPU: 5 iters: 0.1528131 s: 32.7089 GB/s
GPUPCG:  Solving for p, Initial residual = 0.1088625, Final residual = 0.0008964619, No Iterations 5
GPU: 145 iters: 3.429605 s: 42.26496 GB/s
GPUPCG:  Solving for p, Initial residual = 0.001621229, Final residual = 1.601903e-05, No Iterations 145
time step continuity errors : sum local = 3.436693e-12, global = -9.663934e-17, cumulative = -1.010782e-11
Moving mesh time step continuity errors : sum local = 3.436693e-12, global = -9.663934e-17, cumulative = -1.010791e-11
GPU: 30 iters: 0.7379916 s: 40.63744 GB/s
GPUPCG:  Solving for p, Initial residual = 0.0002975597, Final residual = 9.257333e-06, No Iterations 30
GPU: 649 iters: 15.25243 s: 42.53654 GB/s
GPUPCG:  Solving for p, Initial residual = 0.0001162877, Final residual = 9.848193e-08, No Iterations 649
time step continuity errors : sum local = 2.111855e-14, global = 3.825713e-17, cumulative = -1.010788e-11
Moving mesh time step continuity errors : sum local = 2.111855e-14, global = 3.825713e-17, cumulative = -1.010784e-11
smoothSolver:  Solving for k, Initial residual = 0.001156912, Final residual = 7.628689e-10, No Iterations 1
ExecutionTime = 508.77 s  ClockTime = 512 s

Courant Number mean: 7.683369e-05 max: 0.002852247 velocity magnitude: 0.9508177
yForce = -0.044803
Y= 3.249182e-12
Vy= 2.314374e-07
Time = 3.5e-05

GAMGPCG:  Solving for cellDisplacementx, Initial residual = 0, Final residual = 0, No Iterations 0
GAMGPCG:  Solving for cellDisplacementy, Initial residual = 0.4503022, Final residual = 1.455075e-09, No Iterations 1
GAMGPCG:  Solving for cellDisplacementz, Initial residual = 0, Final residual = 0, No Iterations 0
volume continuity errors : volume = 4.535015, max error = 9.122604e-09, sum local = 6.718547e-15, global = 4.335924e-18
smoothSolver:  Solving for Ux, Initial residual = 0.01352732, Final residual = 6.938475e-09, No Iterations 1
smoothSolver:  Solving for Uy, Initial residual = 0.0009592279, Final residual = 1.216122e-08, No Iterations 1
smoothSolver:  Solving for Uz, Initial residual = 0.2521381, Final residual = 1.8739e-06, No Iterations 1
GPU: 3 iters: 0.1065044 s: 28.15853 GB/s
GPUPCG:  Solving for p, Initial residual = 0.09114948, Final residual = 0.0007633211, No Iterations 3
GPU: 124 iters: 2.932389 s: 42.27237 GB/s
GPUPCG:  Solving for p, Initial residual = 0.0009480087, Final residual = 9.752811e-06, No Iterations 124
time step continuity errors : sum local = 1.921409e-12, global = -2.509176e-17, cumulative = -1.010786e-11
Moving mesh time step continuity errors : sum local = 1.921409e-12, global = -2.509176e-17, cumulative = -1.010789e-11
GPU: 25 iters: 0.621186 s: 40.2323 GB/s
GPUPCG:  Solving for p, Initial residual = 9.116854e-05, Final residual = 9.58859e-06, No Iterations 25
GPU: 645 iters: 15.13016 s: 42.61601 GB/s
GPUPCG:  Solving for p, Initial residual = 3.203141e-05, Final residual = 9.707271e-08, No Iterations 645
time step continuity errors : sum local = 1.911932e-14, global = 7.342417e-17, cumulative = -1.010781e-11
Moving mesh time step continuity errors : sum local = 1.911932e-14, global = 7.342417e-17, cumulative = -1.010774e-11
smoothSolver:  Solving for k, Initial residual = 0.0009097417, Final residual = 6.330678e-10, No Iterations 1
ExecutionTime = 559.05 s  ClockTime = 562 s

Courant Number mean: 7.683374e-05 max: 0.002849501 velocity magnitude: 0.9499024
yForce = -0.0451774
Y= 4.336619e-12
Vy= 2.035376e-07
Time = 4e-05

GAMGPCG:  Solving for cellDisplacementx, Initial residual = 0, Final residual = 0, No Iterations 0
GAMGPCG:  Solving for cellDisplacementy, Initial residual = 0.3181139, Final residual = 1.107547e-09, No Iterations 1
GAMGPCG:  Solving for cellDisplacementz, Initial residual = 0, Final residual = 0, No Iterations 0
volume continuity errors : volume = 4.535015, max error = 8.444993e-09, sum local = 6.758649e-15, global = 3.122091e-18
smoothSolver:  Solving for Ux, Initial residual = 0.01095196, Final residual = 5.674897e-09, No Iterations 1
smoothSolver:  Solving for Uy, Initial residual = 0.0008074561, Final residual = 9.760372e-09, No Iterations 1
smoothSolver:  Solving for Uz, Initial residual = 0.2001235, Final residual = 1.75121e-06, No Iterations 1
GPU: 3 iters: 0.1063511 s: 28.19913 GB/s
GPUPCG:  Solving for p, Initial residual = 0.07497282, Final residual = 0.0003902927, No Iterations 3
GPU: 40 iters: 0.9695906 s: 41.2409 GB/s
GPUPCG:  Solving for p, Initial residual = 0.0005379662, Final residual = 9.740451e-06, No Iterations 40
time step continuity errors : sum local = 1.782651e-12, global = -1.289077e-16, cumulative = -1.010787e-11
Moving mesh time step continuity errors : sum local = 1.782651e-12, global = -1.289077e-16, cumulative = -1.0108e-11
GPU: 3 iters: 0.1076426 s: 27.86079 GB/s
GPUPCG:  Solving for p, Initial residual = 3.88086e-05, Final residual = 9.00771e-06, No Iterations 3
GPU: 644 iters: 15.10601 s: 42.61795 GB/s
GPUPCG:  Solving for p, Initial residual = 1.445071e-05, Final residual = 9.853578e-08, No Iterations 644
time step continuity errors : sum local = 1.803153e-14, global = 6.816357e-18, cumulative = -1.010799e-11
Moving mesh time step continuity errors : sum local = 1.803153e-14, global = 6.816357e-18, cumulative = -1.010799e-11
smoothSolver:  Solving for k, Initial residual = 0.0007436921, Final residual = 5.39729e-10, No Iterations 1
ExecutionTime = 607.49 s  ClockTime = 611 s

Courant Number mean: 7.683376e-05 max: 0.002846381 velocity magnitude: 0.9488623
yForce = 0.04263277
Y= 5.420127e-12
Vy= 2.298653e-07
Time = 4.5e-05

GAMGPCG:  Solving for cellDisplacementx, Initial residual = 0, Final residual = 0, No Iterations 0
GAMGPCG:  Solving for cellDisplacementy, Initial residual = 0.2632039, Final residual = 8.424154e-10, No Iterations 1
GAMGPCG:  Solving for cellDisplacementz, Initial residual = 0, Final residual = 0, No Iterations 0
volume continuity errors : volume = 4.535015, max error = 8.040168e-09, sum local = 6.746484e-15, global = 1.793469e-18
smoothSolver:  Solving for Ux, Initial residual = 0.009356457, Final residual = 4.833063e-09, No Iterations 1
smoothSolver:  Solving for Uy, Initial residual = 0.0006792622, Final residual = 8.064319e-09, No Iterations 1
smoothSolver:  Solving for Uz, Initial residual = 0.1835238, Final residual = 1.435829e-06, No Iterations 1
GPU: 3 iters: 0.1062516 s: 28.22553 GB/s
GPUPCG:  Solving for p, Initial residual = 0.06276937, Final residual = 0.000314234, No Iterations 3
GPU: 19 iters: 0.4792737 s: 39.63023 GB/s
GPUPCG:  Solving for p, Initial residual = 0.0004227326, Final residual = 9.564481e-06, No Iterations 19
time step continuity errors : sum local = 1.640333e-12, global = -7.90667e-17, cumulative = -1.010806e-11
Moving mesh time step continuity errors : sum local = 1.640333e-12, global = -7.90667e-17, cumulative = -1.010814e-11
GPU: 1 iters: 0.05765856 s: 17.33775 GB/s
GPUPCG:  Solving for p, Initial residual = 2.485415e-05, Final residual = 8.639819e-06, No Iterations 1
GPU: 416 iters: 9.733249 s: 42.72598 GB/s
GPUPCG:  Solving for p, Initial residual = 9.908436e-06, Final residual = 9.879704e-08, No Iterations 416
time step continuity errors : sum local = 1.694293e-14, global = 1.487756e-15, cumulative = -1.010666e-11
Moving mesh time step continuity errors : sum local = 1.694293e-14, global = 1.487756e-15, cumulative = -1.010517e-11
smoothSolver:  Solving for k, Initial residual = 0.0006255964, Final residual = 4.71765e-10, No Iterations 1
ExecutionTime = 649.6 s  ClockTime = 653 s

Courant Number mean: 7.683376e-05 max: 0.00284288 velocity magnitude: 0.9482452
yForce = -0.01198729
Y= 6.550946e-12
Vy= 2.224622e-07
Time = 5e-05

GAMGPCG:  Solving for cellDisplacementx, Initial residual = 0, Final residual = 0, No Iterations 0
GAMGPCG:  Solving for cellDisplacementy, Initial residual = 0.2321095, Final residual = 7.638803e-10, No Iterations 1
GAMGPCG:  Solving for cellDisplacementz, Initial residual = 0, Final residual = 0, No Iterations 0
volume continuity errors : volume = 4.535015, max error = 9.53075e-09, sum local = 6.746385e-15, global = 1.987584e-18
smoothSolver:  Solving for Ux, Initial residual = 0.008276688, Final residual = 4.218596e-09, No Iterations 1
smoothSolver:  Solving for Uy, Initial residual = 0.0005943369, Final residual = 6.844285e-09, No Iterations 1
smoothSolver:  Solving for Uz, Initial residual = 0.1320206, Final residual = 1.0438e-06, No Iterations 1
GPU: 3 iters: 0.1076421 s: 27.86094 GB/s
GPUPCG:  Solving for p, Initial residual = 0.0563637, Final residual = 0.0002638699, No Iterations 3
GPU: 16 iters: 0.4075942 s: 39.24176 GB/s
GPUPCG:  Solving for p, Initial residual = 0.0003486762, Final residual = 9.351065e-06, No Iterations 16
time step continuity errors : sum local = 1.5132e-12, global = 3.464678e-15, cumulative = -1.01017e-11
Moving mesh time step continuity errors : sum local = 1.5132e-12, global = 3.464678e-15, cumulative = -1.009824e-11
GPU: 1 iters: 0.0584017 s: 17.11713 GB/s
GPUPCG:  Solving for p, Initial residual = 1.964542e-05, Final residual = 7.762329e-06, No Iterations 1
GPU: 641 iters: 15.00636 s: 42.70111 GB/s
GPUPCG:  Solving for p, Initial residual = 8.471227e-06, Final residual = 9.746586e-08, No Iterations 641
time step continuity errors : sum local = 1.577156e-14, global = -3.492207e-17, cumulative = -1.009827e-11
Moving mesh time step continuity errors : sum local = 1.577156e-14, global = -3.492207e-17, cumulative = -1.009831e-11
smoothSolver:  Solving for k, Initial residual = 0.0005378838, Final residual = 4.204609e-10, No Iterations 1
ExecutionTime = 697.3 s  ClockTime = 701 s

yForce = -0.004819864
Y= 7.655814e-12
Vy= 2.194853e-07
End

Finalising parallel run
