 Data for JOB [52619,1] offset 0

 ========================   JOB MAP   ========================

 Data for node: ivb112	Num slots: 4	Max slots: 0	Num procs: 4
 	Process OMPI jobid: [52619,1] App: 0 Process rank: 0
 	Process OMPI jobid: [52619,1] App: 0 Process rank: 1
 	Process OMPI jobid: [52619,1] App: 0 Process rank: 2
 	Process OMPI jobid: [52619,1] App: 0 Process rank: 3

 =============================================================
[ivb112:37501] MCW rank 2 bound to socket 0[core 2[hwt 0]]: [././B/././././././.][./././././././././.]
[ivb112:37501] MCW rank 3 bound to socket 0[core 3[hwt 0]]: [./././B/./././././.][./././././././././.]
[ivb112:37501] MCW rank 0 bound to socket 0[core 0[hwt 0]]: [B/././././././././.][./././././././././.]
[ivb112:37501] MCW rank 1 bound to socket 0[core 1[hwt 0]]: [./B/./././././././.][./././././././././.]
/*---------------------------------------------------------------------------*\
| =========                 |                                                 |
| \\      /  F ield         | foam-extend: Open Source CFD                    |
|  \\    /   O peration     | Version:     3.1                                |
|   \\  /    A nd           | Web:         http://www.extend-project.de       |
|    \\/     M anipulation  |                                                 |
\*---------------------------------------------------------------------------*/
Build    : 3.1-e2da948002a2
Exec     : pimpleDyMFoam -parallel
Date     : May 24 2016
Time     : 05:46:29
Host     : ivb112
PID      : 37534
CtrlDict : /home-2/vplatonov/foam/foam-extend-3.1/etc/controlDict
Case     : /home/vplatonov/tests/3D-mesh1-of3.1
nProcs   : 4
Slaves : 
3
(
ivb112.37542
ivb112.37532
ivb112.37538
)

Pstream initialized with:
    floatTransfer     : 0
    nProcsSimpleSum   : 0
    commsType         : blocking
SigFpe   : Enabling floating point exception trapping (FOAM_SIGFPE).

// * * * * * * * * * * * * * * * * * * * * * * * * * * * * * * * * * * * * * //
Create time

Create dynamic mesh for time = 0

Selecting dynamicFvMesh dynamicMotionSolverFvMesh
Selecting motion solver: displacementLaplacian
Selecting motion diffusion: quadratic
Selecting motion diffusion: inverseDistance
Reading field p

Reading field U

Reading/calculating face flux field phi

Selecting incompressible transport model Newtonian
Selecting turbulence model type LESModel
Selecting LES turbulence model oneEqEddy
oneEqEddyCoeffs
{
    ce              1.048;
    ck              0.094;
}

Reading field rAU if present


Starting time loop

Courant Number mean: 0 max: 0.0007592825 velocity magnitude: 0.4779
Reading old state
Before setting displacements
GAMGPCG:  Solving for cellDisplacementx, Initial residual = 0, Final residual = 0, No Iterations 0
GAMGPCG:  Solving for cellDisplacementy, Initial residual = 0, Final residual = 0, No Iterations 0
GAMGPCG:  Solving for cellDisplacementz, Initial residual = 0, Final residual = 0, No Iterations 0
Time = 5e-06

GAMGPCG:  Solving for cellDisplacementx, Initial residual = 0, Final residual = 0, No Iterations 0
GAMGPCG:  Solving for cellDisplacementy, Initial residual = 0, Final residual = 0, No Iterations 0
GAMGPCG:  Solving for cellDisplacementz, Initial residual = 0, Final residual = 0, No Iterations 0
volume continuity errors : volume = 4.535015, max error = 0, sum local = 0, global = 0
smoothSolver:  Solving for Ux, Initial residual = 1, Final residual = 9.457309e-09, No Iterations 1
smoothSolver:  Solving for Uy, Initial residual = 1, Final residual = 1.115892e-08, No Iterations 1
smoothSolver:  Solving for Uz, Initial residual = 0.9999962, Final residual = 4.021583e-08, No Iterations 1
Created persistent data with name p
Computing AINV with droptol 0.02
GPU: 888 iters: 21.9693 s: 60.04884 GB/s
SGPUPCG:  Solving for p, Initial residual = 1, Final residual = 0.009838046, No Iterations 888
Computing AINV with droptol 0.02
GPU: 163 iters: 4.14985 s: 58.35298 GB/s
SGPUPCG:  Solving for p, Initial residual = 0.000470401, Final residual = 9.820828e-06, No Iterations 163
time step continuity errors : sum local = 2.211079e-09, global = 9.623157e-12, cumulative = 9.623157e-12
Moving mesh time step continuity errors : sum local = 2.211079e-09, global = 9.623157e-12, cumulative = 1.924631e-11
GPU: 176 iters: 4.465326 s: 58.55545 GB/s
SGPUPCG:  Solving for p, Initial residual = 0.0001096526, Final residual = 9.990031e-06, No Iterations 176
GPU: 777 iters: 19.49093 s: 59.22381 GB/s
SGPUPCG:  Solving for p, Initial residual = 4.683048e-05, Final residual = 9.915507e-08, No Iterations 777
time step continuity errors : sum local = 2.233521e-11, global = -1.578898e-13, cumulative = 1.908842e-11
Moving mesh time step continuity errors : sum local = 2.233521e-11, global = -1.578898e-13, cumulative = 1.893053e-11
smoothSolver:  Solving for k, Initial residual = 1, Final residual = 1.495389e-11, No Iterations 2
ExecutionTime = 199.86 s  ClockTime = 203 s

Courant Number mean: 7.684084e-05 max: 0.002865091 velocity magnitude: 0.9550996
yForce = -0.5840943
Y= -9.017748e-13
Vy= -3.607097e-07
Time = 1e-05

GAMGPCG:  Solving for cellDisplacementx, Initial residual = 0, Final residual = 0, No Iterations 0
GAMGPCG:  Solving for cellDisplacementy, Initial residual = 1, Final residual = 1.450726e-09, No Iterations 1
GAMGPCG:  Solving for cellDisplacementz, Initial residual = 0, Final residual = 0, No Iterations 0
volume continuity errors : volume = 4.535015, max error = 9.909082e-09, sum local = 5.615239e-15, global = 2.601258e-18
smoothSolver:  Solving for Ux, Initial residual = 0.9975511, Final residual = 5.468107e-07, No Iterations 1
smoothSolver:  Solving for Uy, Initial residual = 0.333329, Final residual = 1.328069e-06, No Iterations 1
smoothSolver:  Solving for Uz, Initial residual = 0.3336834, Final residual = 7.407543e-07, No Iterations 1
GPU: 902 iters: 22.74466 s: 58.91622 GB/s
SGPUPCG:  Solving for p, Initial residual = 0.003643805, Final residual = 3.511093e-05, No Iterations 902
GPU: 242 iters: 6.140828 s: 58.54588 GB/s
SGPUPCG:  Solving for p, Initial residual = 0.001403029, Final residual = 1.402125e-05, No Iterations 242
time step continuity errors : sum local = 1.053932e-09, global = -4.394983e-13, cumulative = 1.849104e-11
Moving mesh time step continuity errors : sum local = 1.053932e-09, global = -4.394983e-13, cumulative = 1.805154e-11
GPU: 354 iters: 8.908797 s: 59.03262 GB/s
SGPUPCG:  Solving for p, Initial residual = 0.0003137021, Final residual = 9.985214e-06, No Iterations 354
GPU: 808 iters: 20.30448 s: 59.11903 GB/s
SGPUPCG:  Solving for p, Initial residual = 0.0001188079, Final residual = 9.999086e-08, No Iterations 808
time step continuity errors : sum local = 7.508154e-12, global = -2.995519e-14, cumulative = 1.802158e-11
Moving mesh time step continuity errors : sum local = 7.508154e-12, global = -2.995519e-14, cumulative = 1.799163e-11
smoothSolver:  Solving for k, Initial residual = 0.008780193, Final residual = 3.633554e-09, No Iterations 1
ExecutionTime = 305.42 s  ClockTime = 309 s

Courant Number mean: 7.684303e-05 max: 0.00285692 velocity magnitude: 0.9523756
yForce = 1.174302
Y= -8.92333e-13
Vy= 3.644858e-07
Time = 1.5e-05

GAMGPCG:  Solving for cellDisplacementx, Initial residual = 0, Final residual = 0, No Iterations 0
GAMGPCG:  Solving for cellDisplacementy, Initial residual = 0.01262588, Final residual = 1.398e-09, No Iterations 1
GAMGPCG:  Solving for cellDisplacementz, Initial residual = 0, Final residual = 0, No Iterations 0
volume continuity errors : volume = 4.535015, max error = 1.026577e-08, sum local = 6.225794e-15, global = -1.102526e-17
smoothSolver:  Solving for Ux, Initial residual = 0.9921627, Final residual = 5.446568e-07, No Iterations 1
smoothSolver:  Solving for Uy, Initial residual = 0.184764, Final residual = 8.091155e-07, No Iterations 1
smoothSolver:  Solving for Uz, Initial residual = 0.7572644, Final residual = 1.442348e-06, No Iterations 1
GPU: 898 iters: 22.58403 s: 59.07216 GB/s
SGPUPCG:  Solving for p, Initial residual = 0.002800731, Final residual = 2.769791e-05, No Iterations 898
GPU: 237 iters: 6.02583 s: 58.43046 GB/s
SGPUPCG:  Solving for p, Initial residual = 0.09907629, Final residual = 0.0009870478, No Iterations 237
time step continuity errors : sum local = 3.449157e-10, global = 3.084113e-13, cumulative = 1.830004e-11
Moving mesh time step continuity errors : sum local = 3.449157e-10, global = 3.084113e-13, cumulative = 1.860845e-11
GPU: 503 iters: 12.6799 s: 58.93319 GB/s
SGPUPCG:  Solving for p, Initial residual = 0.02242941, Final residual = 0.0002215923, No Iterations 503
GPU: 1000 iters: 25.17565 s: 59.0102 GB/s
SGPUPCG:  Solving for p, Initial residual = 0.007541637, Final residual = 1.153632e-07, No Iterations 1000
time step continuity errors : sum local = 3.662428e-14, global = -4.582595e-17, cumulative = 1.86084e-11
Moving mesh time step continuity errors : sum local = 3.662428e-14, global = -4.582595e-17, cumulative = 1.860836e-11
smoothSolver:  Solving for k, Initial residual = 0.003835061, Final residual = 1.512675e-09, No Iterations 1
ExecutionTime = 420.38 s  ClockTime = 426 s

Courant Number mean: 7.684352e-05 max: 0.002858857 velocity magnitude: 0.9530212
yForce = -0.3575692
Y= 3.780487e-13
Vy= 1.43667e-07
Time = 2e-05

GAMGPCG:  Solving for cellDisplacementx, Initial residual = 0, Final residual = 0, No Iterations 0
GAMGPCG:  Solving for cellDisplacementy, Initial residual = 1, Final residual = 1.43533e-09, No Iterations 1
GAMGPCG:  Solving for cellDisplacementz, Initial residual = 0, Final residual = 0, No Iterations 0
volume continuity errors : volume = 4.535015, max error = 9.573876e-09, sum local = 6.10307e-15, global = 3.969742e-18
smoothSolver:  Solving for Ux, Initial residual = 0.05066659, Final residual = 5.020428e-08, No Iterations 1
smoothSolver:  Solving for Uy, Initial residual = 0.01319879, Final residual = 8.927264e-08, No Iterations 1
smoothSolver:  Solving for Uz, Initial residual = 0.9148703, Final residual = 1.8064e-06, No Iterations 1
GPU: 114 iters: 2.921568 s: 57.96912 GB/s
SGPUPCG:  Solving for p, Initial residual = 0.2265801, Final residual = 0.002238086, No Iterations 114
GPU: 422 iters: 10.67675 s: 58.71933 GB/s
SGPUPCG:  Solving for p, Initial residual = 0.01254231, Final residual = 0.000124512, No Iterations 422
time step continuity errors : sum local = 3.359096e-11, global = -3.513254e-12, cumulative = 1.50951e-11
Moving mesh time step continuity errors : sum local = 3.359096e-11, global = -3.513254e-12, cumulative = 1.158185e-11
GPU: 625 iters: 15.77141 s: 58.87315 GB/s
SGPUPCG:  Solving for p, Initial residual = 0.004239833, Final residual = 4.180496e-05, No Iterations 625
GPU: 863 iters: 21.69132 s: 59.10615 GB/s
SGPUPCG:  Solving for p, Initial residual = 0.001800904, Final residual = 9.733039e-08, No Iterations 863
time step continuity errors : sum local = 2.610117e-14, global = 8.075705e-17, cumulative = 1.158193e-11
Moving mesh time step continuity errors : sum local = 2.610117e-14, global = 8.075705e-17, cumulative = 1.158201e-11
smoothSolver:  Solving for k, Initial residual = 0.002273124, Final residual = 8.911644e-10, No Iterations 1
ExecutionTime = 519.53 s  ClockTime = 525 s

Courant Number mean: 7.684408e-05 max: 0.002856742 velocity magnitude: 0.9523163
yForce = -0.05930061
Y= 1.00483e-12
Vy= 1.070455e-07
Time = 2.5e-05

GAMGPCG:  Solving for cellDisplacementx, Initial residual = 0, Final residual = 0, No Iterations 0
GAMGPCG:  Solving for cellDisplacementy, Initial residual = 0.5971608, Final residual = 1.644057e-09, No Iterations 1
GAMGPCG:  Solving for cellDisplacementz, Initial residual = 0, Final residual = 0, No Iterations 0
volume continuity errors : volume = 4.535015, max error = 1.130738e-08, sum local = 6.338397e-15, global = 3.725805e-18
smoothSolver:  Solving for Ux, Initial residual = 0.0270726, Final residual = 1.7884e-08, No Iterations 1
smoothSolver:  Solving for Uy, Initial residual = 0.004555684, Final residual = 3.13535e-08, No Iterations 1
smoothSolver:  Solving for Uz, Initial residual = 0.7304096, Final residual = 1.893538e-06, No Iterations 1
GPU: 35 iters: 0.9209816 s: 56.45793 GB/s
SGPUPCG:  Solving for p, Initial residual = 0.1533823, Final residual = 0.001488846, No Iterations 35
GPU: 480 iters: 12.11475 s: 58.86194 GB/s
SGPUPCG:  Solving for p, Initial residual = 0.003922371, Final residual = 3.915996e-05, No Iterations 480
time step continuity errors : sum local = 9.311787e-12, global = 8.537119e-13, cumulative = 1.243572e-11
Moving mesh time step continuity errors : sum local = 9.311787e-12, global = 8.537119e-13, cumulative = 1.328944e-11
GPU: 635 iters: 15.97443 s: 59.05492 GB/s
SGPUPCG:  Solving for p, Initial residual = 0.001010913, Final residual = 1.003825e-05, No Iterations 635
GPU: 814 iters: 20.45266 s: 59.12653 GB/s
SGPUPCG:  Solving for p, Initial residual = 0.0003984162, Final residual = 9.967145e-08, No Iterations 814
time step continuity errors : sum local = 2.362104e-14, global = -4.96932e-17, cumulative = 1.328939e-11
Moving mesh time step continuity errors : sum local = 2.362104e-14, global = -4.96932e-17, cumulative = 1.328934e-11
smoothSolver:  Solving for k, Initial residual = 0.001554792, Final residual = 6.189816e-10, No Iterations 1
ExecutionTime = 617.77 s  ClockTime = 624 s

Courant Number mean: 7.684421e-05 max: 0.002854608 velocity magnitude: 0.9516049
yForce = 0.1407266
Y= 1.757323e-12
Vy= 1.939516e-07
Time = 3e-05

GAMGPCG:  Solving for cellDisplacementx, Initial residual = 0, Final residual = 0, No Iterations 0
GAMGPCG:  Solving for cellDisplacementy, Initial residual = 0.499766, Final residual = 6.223293e-10, No Iterations 1
GAMGPCG:  Solving for cellDisplacementz, Initial residual = 0, Final residual = 0, No Iterations 0
volume continuity errors : volume = 4.535015, max error = 1.052288e-08, sum local = 6.455352e-15, global = -9.59517e-18
smoothSolver:  Solving for Ux, Initial residual = 0.01761465, Final residual = 8.841726e-09, No Iterations 1
smoothSolver:  Solving for Uy, Initial residual = 0.001237647, Final residual = 1.695735e-08, No Iterations 1
smoothSolver:  Solving for Uz, Initial residual = 0.2644251, Final residual = 1.564858e-06, No Iterations 1
GPU: 5 iters: 0.176487 s: 42.08865 GB/s
SGPUPCG:  Solving for p, Initial residual = 0.1088627, Final residual = 0.0008523157, No Iterations 5
GPU: 179 iters: 4.542152 s: 58.54627 GB/s
SGPUPCG:  Solving for p, Initial residual = 0.00157551, Final residual = 1.570077e-05, No Iterations 179
time step continuity errors : sum local = 3.368322e-12, global = -1.166469e-16, cumulative = 1.328922e-11
Moving mesh time step continuity errors : sum local = 3.368322e-12, global = -1.166469e-16, cumulative = 1.32891e-11
GPU: 36 iters: 0.9492791 s: 56.33995 GB/s
SGPUPCG:  Solving for p, Initial residual = 0.0002999535, Final residual = 9.680374e-06, No Iterations 36
GPU: 792 iters: 19.95847 s: 58.95298 GB/s
SGPUPCG:  Solving for p, Initial residual = 0.0001178894, Final residual = 9.981999e-08, No Iterations 792
time step continuity errors : sum local = 2.140545e-14, global = -1.119935e-16, cumulative = 1.328899e-11
Moving mesh time step continuity errors : sum local = 2.140545e-14, global = -1.119935e-16, cumulative = 1.328888e-11
smoothSolver:  Solving for k, Initial residual = 0.001156911, Final residual = 4.665162e-10, No Iterations 1
ExecutionTime = 691.46 s  ClockTime = 698 s

Courant Number mean: 7.684431e-05 max: 0.002852247 velocity magnitude: 0.9508176
yForce = -0.07197754
Y= 2.615955e-12
Vy= 1.495013e-07
Time = 3.5e-05

GAMGPCG:  Solving for cellDisplacementx, Initial residual = 0, Final residual = 0, No Iterations 0
GAMGPCG:  Solving for cellDisplacementy, Initial residual = 0.3941099, Final residual = 6.499703e-10, No Iterations 1
GAMGPCG:  Solving for cellDisplacementz, Initial residual = 0, Final residual = 0, No Iterations 0
volume continuity errors : volume = 4.535015, max error = 1.001663e-08, sum local = 6.50444e-15, global = 5.526326e-18
smoothSolver:  Solving for Ux, Initial residual = 0.01352744, Final residual = 6.756757e-09, No Iterations 1
smoothSolver:  Solving for Uy, Initial residual = 0.0009592072, Final residual = 1.25559e-08, No Iterations 1
smoothSolver:  Solving for Uz, Initial residual = 0.189973, Final residual = 1.27687e-06, No Iterations 1
GPU: 3 iters: 0.1248325 s: 35.70274 GB/s
SGPUPCG:  Solving for p, Initial residual = 0.09114929, Final residual = 0.0007130585, No Iterations 3
GPU: 135 iters: 3.450036 s: 58.13236 GB/s
SGPUPCG:  Solving for p, Initial residual = 0.0008944869, Final residual = 9.958658e-06, No Iterations 135
time step continuity errors : sum local = 1.961982e-12, global = 4.119703e-17, cumulative = 1.328892e-11
Moving mesh time step continuity errors : sum local = 1.961982e-12, global = 4.119703e-17, cumulative = 1.328896e-11
GPU: 35 iters: 0.9323746 s: 55.76805 GB/s
SGPUPCG:  Solving for p, Initial residual = 9.217906e-05, Final residual = 9.680471e-06, No Iterations 35
GPU: 769 iters: 19.40319 s: 58.87908 GB/s
SGPUPCG:  Solving for p, Initial residual = 3.31502e-05, Final residual = 9.906144e-08, No Iterations 769
time step continuity errors : sum local = 1.951104e-14, global = -3.295469e-18, cumulative = 1.328896e-11
Moving mesh time step continuity errors : sum local = 1.951104e-14, global = -3.295469e-18, cumulative = 1.328895e-11
smoothSolver:  Solving for k, Initial residual = 0.0009097412, Final residual = 3.836228e-10, No Iterations 1
ExecutionTime = 764.19 s  ClockTime = 771 s

Courant Number mean: 7.684436e-05 max: 0.002849501 velocity magnitude: 0.9499024
yForce = -0.007235583
Y= 3.35229e-12
Vy= 1.450327e-07
Time = 4e-05

GAMGPCG:  Solving for cellDisplacementx, Initial residual = 0, Final residual = 0, No Iterations 0
GAMGPCG:  Solving for cellDisplacementy, Initial residual = 0.2838308, Final residual = 4.281305e-10, No Iterations 1
GAMGPCG:  Solving for cellDisplacementz, Initial residual = 0, Final residual = 0, No Iterations 0
volume continuity errors : volume = 4.535015, max error = 9.623276e-09, sum local = 6.573922e-15, global = -3.152689e-18
smoothSolver:  Solving for Ux, Initial residual = 0.01095196, Final residual = 5.434554e-09, No Iterations 1
smoothSolver:  Solving for Uy, Initial residual = 0.000807596, Final residual = 9.989442e-09, No Iterations 1
smoothSolver:  Solving for Uz, Initial residual = 0.1742052, Final residual = 1.204206e-06, No Iterations 1
GPU: 3 iters: 0.1263142 s: 35.28392 GB/s
SGPUPCG:  Solving for p, Initial residual = 0.07497268, Final residual = 0.0003261865, No Iterations 3
GPU: 53 iters: 1.376699 s: 57.19326 GB/s
SGPUPCG:  Solving for p, Initial residual = 0.0004719809, Final residual = 9.74158e-06, No Iterations 53
time step continuity errors : sum local = 1.782843e-12, global = -2.106548e-17, cumulative = 1.328893e-11
Moving mesh time step continuity errors : sum local = 1.782843e-12, global = -2.106548e-17, cumulative = 1.328891e-11
GPU: 6 iters: 0.2008233 s: 44.3859 GB/s
SGPUPCG:  Solving for p, Initial residual = 3.897997e-05, Final residual = 8.936215e-06, No Iterations 6
GPU: 737 iters: 18.57164 s: 58.9556 GB/s
SGPUPCG:  Solving for p, Initial residual = 1.503716e-05, Final residual = 9.896953e-08, No Iterations 737
time step continuity errors : sum local = 1.811092e-14, global = -1.799245e-16, cumulative = 1.328873e-11
Moving mesh time step continuity errors : sum local = 1.811092e-14, global = -1.799245e-16, cumulative = 1.328855e-11
smoothSolver:  Solving for k, Initial residual = 0.0007436918, Final residual = 3.250426e-10, No Iterations 1
ExecutionTime = 832.81 s  ClockTime = 840 s

Courant Number mean: 7.684438e-05 max: 0.002846381 velocity magnitude: 0.9488623
yForce = 0.03030873
Y= 4.124246e-12
Vy= 1.637497e-07
Time = 4.5e-05

GAMGPCG:  Solving for cellDisplacementx, Initial residual = 0, Final residual = 0, No Iterations 0
GAMGPCG:  Solving for cellDisplacementy, Initial residual = 0.2477252, Final residual = 3.557092e-10, No Iterations 1
GAMGPCG:  Solving for cellDisplacementz, Initial residual = 0, Final residual = 0, No Iterations 0
volume continuity errors : volume = 4.535015, max error = 1.052756e-08, sum local = 6.570273e-15, global = 4.607836e-18
smoothSolver:  Solving for Ux, Initial residual = 0.009356422, Final residual = 4.558709e-09, No Iterations 1
smoothSolver:  Solving for Uy, Initial residual = 0.0006791227, Final residual = 8.215607e-09, No Iterations 1
smoothSolver:  Solving for Uz, Initial residual = 0.1547445, Final residual = 1.031398e-06, No Iterations 1
GPU: 3 iters: 0.1268181 s: 35.14372 GB/s
SGPUPCG:  Solving for p, Initial residual = 0.0627694, Final residual = 0.0002642832, No Iterations 3
GPU: 24 iters: 0.6546949 s: 54.46031 GB/s
SGPUPCG:  Solving for p, Initial residual = 0.0003714766, Final residual = 9.557113e-06, No Iterations 24
time step continuity errors : sum local = 1.639064e-12, global = -3.545327e-16, cumulative = 1.32882e-11
Moving mesh time step continuity errors : sum local = 1.639064e-12, global = -3.545327e-16, cumulative = 1.328784e-11
GPU: 1 iters: 0.07430682 s: 19.99306 GB/s
SGPUPCG:  Solving for p, Initial residual = 2.50874e-05, Final residual = 9.651879e-06, No Iterations 1
GPU: 504 iters: 12.6952 s: 58.97919 GB/s
SGPUPCG:  Solving for p, Initial residual = 1.08038e-05, Final residual = 9.94667e-08, No Iterations 504
time step continuity errors : sum local = 1.705779e-14, global = 1.686515e-15, cumulative = 1.328953e-11
Moving mesh time step continuity errors : sum local = 1.705779e-14, global = 1.686515e-15, cumulative = 1.329122e-11
smoothSolver:  Solving for k, Initial residual = 0.0006255962, Final residual = 2.83765e-10, No Iterations 1
ExecutionTime = 895.61 s  ClockTime = 903 s

Courant Number mean: 7.684437e-05 max: 0.00284288 velocity magnitude: 0.9482452
yForce = -0.01593394
Y= 4.918394e-12
Vy= 1.539094e-07
Time = 5e-05

GAMGPCG:  Solving for cellDisplacementx, Initial residual = 0, Final residual = 0, No Iterations 0
GAMGPCG:  Solving for cellDisplacementy, Initial residual = 0.217762, Final residual = 3.102114e-10, No Iterations 1
GAMGPCG:  Solving for cellDisplacementz, Initial residual = 0, Final residual = 0, No Iterations 0
volume continuity errors : volume = 4.535015, max error = 1.052261e-08, sum local = 6.598905e-15, global = 2.550969e-18
smoothSolver:  Solving for Ux, Initial residual = 0.008276636, Final residual = 3.931339e-09, No Iterations 1
smoothSolver:  Solving for Uy, Initial residual = 0.0005943332, Final residual = 6.911598e-09, No Iterations 1
smoothSolver:  Solving for Uz, Initial residual = 0.1118334, Final residual = 7.181366e-07, No Iterations 1
GPU: 3 iters: 0.1274003 s: 34.98313 GB/s
SGPUPCG:  Solving for p, Initial residual = 0.05636348, Final residual = 0.0002225889, No Iterations 3
GPU: 19 iters: 0.5301011 s: 53.24793 GB/s
SGPUPCG:  Solving for p, Initial residual = 0.0003066756, Final residual = 9.754593e-06, No Iterations 19
time step continuity errors : sum local = 1.578499e-12, global = 4.273997e-15, cumulative = 1.329549e-11
Moving mesh time step continuity errors : sum local = 1.578499e-12, global = 4.273997e-15, cumulative = 1.329976e-11
GPU: 1 iters: 0.07516928 s: 19.76366 GB/s
SGPUPCG:  Solving for p, Initial residual = 2.087916e-05, Final residual = 9.127866e-06, No Iterations 1
GPU: 724 iters: 18.29644 s: 58.7868 GB/s
SGPUPCG:  Solving for p, Initial residual = 9.770227e-06, Final residual = 9.766809e-08, No Iterations 724
time step continuity errors : sum local = 1.58043e-14, global = -1.541821e-16, cumulative = 1.329961e-11
Moving mesh time step continuity errors : sum local = 1.58043e-14, global = -1.541821e-16, cumulative = 1.329946e-11
smoothSolver:  Solving for k, Initial residual = 0.0005378835, Final residual = 2.535582e-10, No Iterations 1
ExecutionTime = 963.86 s  ClockTime = 972 s

yForce = 0.0001409483
Y= 5.688158e-12
Vy= 1.539962e-07
End

Finalising parallel run
