 Data for JOB [57435,1] offset 0

 ========================   JOB MAP   ========================

 Data for node: ivb106	Num slots: 4	Max slots: 0	Num procs: 4
 	Process OMPI jobid: [57435,1] App: 0 Process rank: 0
 	Process OMPI jobid: [57435,1] App: 0 Process rank: 1
 	Process OMPI jobid: [57435,1] App: 0 Process rank: 2
 	Process OMPI jobid: [57435,1] App: 0 Process rank: 3

 =============================================================
[ivb106:27593] MCW rank 2 bound to socket 0[core 2[hwt 0]]: [././B/././././././.][./././././././././.]
[ivb106:27593] MCW rank 3 bound to socket 0[core 3[hwt 0]]: [./././B/./././././.][./././././././././.]
[ivb106:27593] MCW rank 0 bound to socket 0[core 0[hwt 0]]: [B/././././././././.][./././././././././.]
[ivb106:27593] MCW rank 1 bound to socket 0[core 1[hwt 0]]: [./B/./././././././.][./././././././././.]
1
0
2
3
/*---------------------------------------------------------------------------*\
| =========                 |                                                 |
| \\      /  F ield         | foam-extend: Open Source CFD                    |
|  \\    /   O peration     | Version:     3.1                                |
|   \\  /    A nd           | Web:         http://www.extend-project.de       |
|    \\/     M anipulation  |                                                 |
\*---------------------------------------------------------------------------*/
Build    : 3.1-e2da948002a2
Exec     : interFoam -parallel
Date     : May 21 2016
Time     : 09:30:12
Host     : ivb106
PID      : 27624
CtrlDict : /home-2/vplatonov/foam/foam-extend-3.1/etc/controlDict
Case     : /home/vplatonov/tests/rt12mln
nProcs   : 4
Slaves : 
3
(
ivb106.27637
ivb106.27626
ivb106.27632
)

Pstream initialized with:
    floatTransfer     : 0
    nProcsSimpleSum   : 0
    commsType         : blocking
SigFpe   : Enabling floating point exception trapping (FOAM_SIGFPE).

// * * * * * * * * * * * * * * * * * * * * * * * * * * * * * * * * * * * * * //
Create time

Create mesh for time = 0


Reading g
Reading field pd

Reading field alpha1

Reading field U

Reading/calculating face flux field phi

Reading transportProperties

Selecting incompressible transport model Newtonian
Selecting incompressible transport model Newtonian
Calculating field g.h

Selecting turbulence model type laminar
time step continuity errors : sum local = 0, global = 0, cumulative = 0
Created persistent data with name pcorr
GPUAMG:  Solving for pcorr, Initial residual = 0, Final residual = 0, No Iterations 0
time step continuity errors : sum local = 0, global = 0, cumulative = 0
Courant Number mean: 0 max: 0 velocity magnitude: 0

Starting time loop

Courant Number mean: 0 max: 0 velocity magnitude: 0
Time = 0.001

MULES: Solving for alpha1
Liquid phase volume fraction = 0.00275421  Min(alpha1) = 0  Max(alpha1) = 1
MULES: Solving for alpha1
Liquid phase volume fraction = 0.00275421  Min(alpha1) = 0  Max(alpha1) = 1
Created persistent data with name pd
[0] Building level 0
[1] Building level 0
[2] Building level 0
[3] Building level 0
Creating AMGLevel 
[0] Building level 1
[1] Building level 1
[3] Building level 1
[2] Building level 1
Creating AMGLevel 
[0] Building level 2
[1] Building level 2
[3] Building level 2
[2] Building level 2
Creating AMGLevel 
[0] Building level 3
[1] Building level 3
[3] Building level 3
[2] Building level 3
Creating AMGLevel 
[0] Building level 4
[2] Building level 4
[1] Building level 4
[3] Building level 4
Creating AMGLevel 
[0] Building level 5
[2] Building level 5
[1] Building level 5
[3] Building level 5
Creating AMGLevel 
[0] Building level 6
[2] Building level 6
[1] Building level 6
[3] Building level 6
Creating AMGLevel 
[0] Building level 7
[2] Building level 7
[1] Building level 7
[3] Building level 7
Creating AMGLevel 
[0] Building level 8
[2] Building level 8
Creating AMGLevel 
[0] Building level 9
[1] Building level 8
Creating AMGLevel 
[0] Building level 10
[3] Building level 8
Creating AMGLevel 
[0] Building level 11
[2] Building level 9
[1] Building level 9
Creating AMGLevel 
[0] Building level 12
Creating AMGLevel 
[0] Building level 13
Creating AMGLevel 
[0] Building level 14
[2] Building level 10
Creating AMGLevel 
14 Level construction complete
[1] Building level 10
[3] Building level 9
[2] Building level 11
[1] Building level 11
[2] Building level 12
[3] Building level 10
[1] Building level 12
[2] Building level 13
[1] Building level 13
[2] Building level 14
[1] Building level 14
[3] Building level 11
[3] Building level 12
[3] Building level 13
[3] Building level 14
initial dot_x = 0
Iter #1 residual = 0.0732925
GPU: 1 iters: 0.517939 s: 1.26354 GB/s
GPUAMG:  Solving for pd, Initial residual = 1, Final residual = 0.02711, No Iterations 1
[3] Building level 0
[1] Building level 0
[0] Building level 0
[2] Building level 0
[3] Building level 1
[0] Building level 1
[2] Building level 1
[1] Building level 1
[2] Building level 2
[0] Building level 2
[3] Building level 2
[1] Building level 2
[0] Building level 3
[2] Building level 3
[3] Building level 3
[1] Building level 3
[0] Building level 4
[2] Building level 4
[3] Building level 4
[1] Building level 4
[0] Building level 5
[2] Building level 5
[3] Building level 5
[1] Building level 5
[0] Building level 6
[2] Building level 6
[3] Building level 6
[1] Building level 6
[0] Building level 7
[2] Building level 7
[0] Building level 8
[2] Building level 8
[3] Building level 7
[1] Building level 7
[0] Building level 9
[2] Building level 9
[0] Building level 10
[0] Building level 11
[2] Building level 10
[0] Building level 12
[0] Building level 13
[0] Building level 14
14 Level construction complete
[2] Building level 11
[2] Building level 12
[3] Building level 8
[2] Building level 13
[1] Building level 8
[2] Building level 14
[3] Building level 9
[1] Building level 9
[1] Building level 10
[3] Building level 10
[1] Building level 11
[3] Building level 11
[3] Building level 12
[1] Building level 12
[3] Building level 13
[1] Building level 13
[3] Building level 14
[1] Building level 14
initial dot_x = 75583.3
Iter #1 residual = 0.00835591
Iter #2 residual = 0.00430112
Iter #3 residual = 0.00229655
Iter #4 residual = 0.00122681
GPU: 4 iters: 1.28338 s: 2.03973 GB/s
GPUAMG:  Solving for pd, Initial residual = 0.0195018, Final residual = 0.000642416, No Iterations 4
[3] Building level 0
[2] Building level 0
[0] Building level 0
[1] Building level 0
[3] Building level 1
[0] Building level 1
[2] Building level 1
[1] Building level 1
[0] Building level 2
[2] Building level 2
[3] Building level 2
[1] Building level 2
[0] Building level 3
[2] Building level 3
[3] Building level 3
[1] Building level 3
[0] Building level 4
[2] Building level 4
[3] Building level 4
[1] Building level 4
[0] Building level 5
[2] Building level 5
[3] Building level 5
[1] Building level 5
[0] Building level 6
[2] Building level 6
[3] Building level 6
[1] Building level 6
[0] Building level 7
[0] Building level 8
[2] Building level 7
[3] Building level 7
[1] Building level 7
[0] Building level 9
[0] Building level 10
[0] Building level 11
[0] Building level 12
[0] Building level 13
[3] Building level 8
[0] Building level 14
14 Level construction complete
[2] Building level 8
[1] Building level 8
[3] Building level 9
[2] Building level 9
[1] Building level 9
[3] Building level 10
[2] Building level 10
[3] Building level 11
[2] Building level 11
[1] Building level 10
[3] Building level 12
[3] Building level 13
[3] Building level 14
[2] Building level 12
[1] Building level 11
[2] Building level 13
[2] Building level 14
[1] Building level 12
[1] Building level 13
[1] Building level 14
initial dot_x = 127815
Iter #1 residual = 0.00249741
Iter #2 residual = 0.00114304
Iter #3 residual = 0.000554414
Iter #4 residual = 0.000276941
Iter #5 residual = 0.000144451
Iter #6 residual = 8.17924e-05
Iter #7 residual = 5.01152e-05
Iter #8 residual = 3.09094e-05
Iter #9 residual = 1.97675e-05
Iter #10 residual = 1.2758e-05
Iter #11 residual = 8.44267e-06
Iter #12 residual = 5.69521e-06
Iter #13 residual = 3.90703e-06
Iter #14 residual = 2.76704e-06
Iter #15 residual = 2.0465e-06
Iter #16 residual = 1.54888e-06
Iter #17 residual = 1.20468e-06
Iter #18 residual = 9.52316e-07
Iter #19 residual = 7.56719e-07
Iter #20 residual = 6.12928e-07
Iter #21 residual = 4.90611e-07
Iter #22 residual = 4.06007e-07
Iter #23 residual = 3.24582e-07
Iter #24 residual = 2.74781e-07
Iter #25 residual = 2.17358e-07
Iter #26 residual = 1.9166e-07
Iter #27 residual = 1.45635e-07
Iter #28 residual = 1.37641e-07
GPU: 28 iters: 7.44654 s: 2.46077 GB/s
GPUAMG:  Solving for pd, Initial residual = 0.0062185, Final residual = 9.77645e-08, No Iterations 28
time step continuity errors : sum local = 7.26913e-12, global = -2.87445e-25, cumulative = -2.87445e-25
ExecutionTime = 90.55 s  ClockTime = 102 s

Courant Number mean: 4.87589e-06 max: 0.00216224 velocity magnitude: 0.033785
Time = 0.002

MULES: Solving for alpha1
Liquid phase volume fraction = 0.00275421  Min(alpha1) = 0  Max(alpha1) = 1
MULES: Solving for alpha1
Liquid phase volume fraction = 0.00275421  Min(alpha1) = 0  Max(alpha1) = 1
[1] Building level 0
[0] Building level 0
[2] Building level 0
[3] Building level 0
[3] Building level 1
[2] Building level 1
[0] Building level 1
Reconstruction on level 1
[1] Building level 1
Creating AMGLevel 
[2] Building level 2
[1] Building level 2
[0] Building level 2
Reconstruction on level 2
[3] Building level 2
Creating AMGLevel 
[2] Building level 3
[0] Building level 3
Reconstruction on level 3
[1] Building level 3
[3] Building level 3
[1] Building level 4
Creating AMGLevel 
[0] Building level 4
Reconstruction on level 4
[2] Building level 4
[3] Building level 4
[1] Building level 5
Creating AMGLevel 
[0] Building level 5
Reconstruction on level 5
[2] Building level 5
[3] Building level 5
[1] Building level 6
Creating AMGLevel 
[0] Building level 6
Reconstruction on level 6
[1] Building level 7
[2] Building level 6
[3] Building level 6
[1] Building level 8
Creating AMGLevel 
[0] Building level 7
Reconstruction on level 7
[1] Building level 9
[1] Building level 10
[2] Building level 7
[1] Building level 11
[1] Building level 12
Creating AMGLevel 
[0] Building level 8
Reconstruction on level 8
[1] Building level 13
[3] Building level 7
[1] Building level 14
Creating AMGLevel 
[0] Building level 9
Reconstruction on level 9
[2] Building level 8
Creating AMGLevel 
[0] Building level 10
Reconstruction on level 10
[3] Building level 8
Creating AMGLevel 
[0] Building level 11
Reconstruction on level 11
Creating AMGLevel 
[0] Building level 12
Reconstruction on level 12
Creating AMGLevel 
[0] Building level 13
Reconstruction on level 13
[2] Building level 9
Creating AMGLevel 
[0] Building level 14
Reconstruction on level 14
Creating AMGLevel 
14 Level construction complete
[3] Building level 9
[2] Building level 10
[2] Building level 11
[2] Building level 12
[3] Building level 10
[2] Building level 13
[2] Building level 14
[3] Building level 11
[3] Building level 12
[3] Building level 13
[3] Building level 14
initial dot_x = 114386
Iter #1 residual = 0.000809428
Iter #2 residual = 0.000404099
Iter #3 residual = 0.000219955
GPU: 3 iters: 1.03309 s: 1.90043 GB/s
GPUAMG:  Solving for pd, Initial residual = 0.00335938, Final residual = 0.000126463, No Iterations 3
[2] Building level 0
[0] Building level 0
[3] Building level 0
[1] Building level 0
[0] Building level 1
[1] Building level 1
[3] Building level 1
[2] Building level 1
[2] Building level 2
[0] Building level 2
[1] Building level 2
[3] Building level 2
[2] Building level 3
[0] Building level 3
[1] Building level 3
[3] Building level 3
[0] Building level 4
[1] Building level 4
[2] Building level 4
[3] Building level 4
[1] Building level 5
[0] Building level 5
[2] Building level 5
[3] Building level 5
[1] Building level 6
[0] Building level 6
[1] Building level 7
[2] Building level 6
[0] Building level 7
[1] Building level 8
[3] Building level 6
[1] Building level 9
[0] Building level 8
[1] Building level 10
[1] Building level 11
[1] Building level 12
[0] Building level 9
[1] Building level 13
[1] Building level 14
[2] Building level 7
[0] Building level 10
[0] Building level 11
[0] Building level 12
[0] Building level 13
[0] Building level 14
14 Level construction complete
[2] Building level 8
[3] Building level 7
[2] Building level 9
[2] Building level 10
[2] Building level 11
[2] Building level 12
[2] Building level 13
[2] Building level 14
[3] Building level 8
[3] Building level 9
[3] Building level 10
[3] Building level 11
[3] Building level 12
[3] Building level 13
[3] Building level 14
initial dot_x = 117317
Iter #1 residual = 0.000549859
Iter #2 residual = 0.000271022
Iter #3 residual = 0.00013229
GPU: 3 iters: 1.03912 s: 1.8894 GB/s
GPUAMG:  Solving for pd, Initial residual = 0.0021158, Final residual = 6.96593e-05, No Iterations 3
[3] Building level 0
[1] Building level 0
[0] Building level 0
[2] Building level 0
[0] Building level 1
[1] Building level 1
[3] Building level 1
[2] Building level 1
[2] Building level 2
[0] Building level 2
[1] Building level 2
[3] Building level 2
[2] Building level 3
[1] Building level 3
[0] Building level 3
[3] Building level 3
[0] Building level 4
[1] Building level 4
[2] Building level 4
[3] Building level 4
[1] Building level 5
[0] Building level 5
[2] Building level 5
[3] Building level 5
[1] Building level 6
[0] Building level 6
[1] Building level 7
[2] Building level 6
[0] Building level 7
[1] Building level 8
[0] Building level 8
[3] Building level 6
[1] Building level 9
[1] Building level 10
[0] Building level 9
[1] Building level 11
[1] Building level 12
[1] Building level 13
[1] Building level 14
[2] Building level 7
[0] Building level 10
[0] Building level 11
[0] Building level 12
[0] Building level 13
[0] Building level 14
14 Level construction complete
[2] Building level 8
[3] Building level 7
[2] Building level 9
[2] Building level 10
[2] Building level 11
[2] Building level 12
[2] Building level 13
[2] Building level 14
[3] Building level 8
[3] Building level 9
[3] Building level 10
[3] Building level 11
[3] Building level 12
[3] Building level 13
[3] Building level 14
initial dot_x = 114378
Iter #1 residual = 0.000834954
Iter #2 residual = 0.000529868
Iter #3 residual = 0.000285916
Iter #4 residual = 0.00017053
Iter #5 residual = 0.000100503
Iter #6 residual = 5.7963e-05
Iter #7 residual = 4.12776e-05
Iter #8 residual = 3.37339e-05
Iter #9 residual = 2.69046e-05
Iter #10 residual = 2.07152e-05
Iter #11 residual = 1.43972e-05
Iter #12 residual = 1.16598e-05
Iter #13 residual = 9.48663e-06
Iter #14 residual = 6.48549e-06
Iter #15 residual = 4.05416e-06
Iter #16 residual = 3.06928e-06
Iter #17 residual = 2.32921e-06
Iter #18 residual = 1.93238e-06
Iter #19 residual = 1.54903e-06
Iter #20 residual = 1.06327e-06
Iter #21 residual = 7.42573e-07
Iter #22 residual = 5.49639e-07
Iter #23 residual = 3.07163e-07
Iter #24 residual = 2.0148e-07
Iter #25 residual = 1.65788e-07
Iter #26 residual = 1.31166e-07
Iter #27 residual = 1.18293e-07
GPU: 27 iters: 7.25158 s: 2.43668 GB/s
GPUAMG:  Solving for pd, Initial residual = 0.00192717, Final residual = 9.50795e-08, No Iterations 27
time step continuity errors : sum local = 4.49325e-12, global = 3.2534e-24, cumulative = 2.96595e-24
ExecutionTime = 149.27 s  ClockTime = 162 s

Courant Number mean: 7.67656e-06 max: 0.00313308 velocity magnitude: 0.0489543
Time = 0.003

MULES: Solving for alpha1
Liquid phase volume fraction = 0.00275421  Min(alpha1) = -2.84384e-31  Max(alpha1) = 1
MULES: Solving for alpha1
Liquid phase volume fraction = 0.00275421  Min(alpha1) = -8.3564e-30  Max(alpha1) = 1
[2] Building level 0
[1] Building level 0
[3] Building level 0
[0] Building level 0
[3] Building level 1
[2] Building level 1
[0] Building level 1
Reconstruction on level 1
[1] Building level 1
[2] Building level 2
[1] Building level 2
[1] Building level 3
[1] Building level 4
[2] Building level 3
[1] Building level 5
Creating AMGLevel 
[1] Building level 6
[0] Building level 2
[3] Building level 2
[0] Building level 3
Reconstruction on level 3
[2] Building level 4
[1] Building level 7
[1] Building level 8
[1] Building level 9
[1] Building level 10
[1] Building level 11
[1] Building level 12
[1] Building level 13
[1] Building level 14
[2] Building level 5
Creating AMGLevel 
[0] Building level 4
Reconstruction on level 4
[3] Building level 3
[2] Building level 6
[2] Building level 7
[2] Building level 8
Creating AMGLevel 
[0] Building level 5
Reconstruction on level 5
[2] Building level 9
[2] Building level 10
[2] Building level 11
[2] Building level 12
[2] Building level 13
[2] Building level 14
Creating AMGLevel 
[0] Building level 6
Reconstruction on level 6
[3] Building level 4
Creating AMGLevel 
[0] Building level 7
Reconstruction on level 7
Creating AMGLevel 
[0] Building level 8
Reconstruction on level 8
Creating AMGLevel 
[0] Building level 9
Reconstruction on level 9
Creating AMGLevel 
[0] Building level 10
Reconstruction on level 10
Creating AMGLevel 
[0] Building level 11
Reconstruction on level 11
Creating AMGLevel 
[0] Building level 12
Reconstruction on level 12
Creating AMGLevel 
[0] Building level 13
Reconstruction on level 13
Creating AMGLevel 
[0] Building level 14
Reconstruction on level 14
Creating AMGLevel 
14 Level construction complete
[3] Building level 5
[3] Building level 6
[3] Building level 7
[3] Building level 8
[3] Building level 9
[3] Building level 10
[3] Building level 11
[3] Building level 12
[3] Building level 13
[3] Building level 14
initial dot_x = 113239
Iter #1 residual = 0.00215878
Iter #2 residual = 0.00124457
Iter #3 residual = 0.000723174
Iter #4 residual = 0.000456824
Iter #5 residual = 0.000275142
GPU: 5 iters: 1.60889 s: 2.03381 GB/s
GPUAMG:  Solving for pd, Initial residual = 0.00424298, Final residual = 0.000177343, No Iterations 5
[1] Building level 0
[0] Building level 0
[3] Building level 0
[2] Building level 0
[3] Building level 1
[0] Building level 1
[2] Building level 1
[1] Building level 1
[0] Building level 2
[2] Building level 2
[3] Building level 2
[1] Building level 2
[0] Building level 3
[2] Building level 3
[3] Building level 3
[1] Building level 3
[0] Building level 4
[1] Building level 4
[2] Building level 4
[3] Building level 4
[0] Building level 5
[1] Building level 5
[2] Building level 5
[3] Building level 5
[0] Building level 6
[1] Building level 6
[0] Building level 7
[2] Building level 6
[1] Building level 7
[0] Building level 8
[3] Building level 6
[0] Building level 9
[0] Building level 10
[0] Building level 11
[1] Building level 8
[0] Building level 12
[0] Building level 13
[0] Building level 14
[2] Building level 7
14 Level construction complete
[1] Building level 9
[1] Building level 10
[1] Building level 11
[1] Building level 12
[1] Building level 13
[2] Building level 8
[1] Building level 14
[3] Building level 7
[2] Building level 9
[2] Building level 10
[2] Building level 11
[3] Building level 8
[2] Building level 12
[2] Building level 13
[2] Building level 14
[3] Building level 9
[3] Building level 10
[3] Building level 11
[3] Building level 12
[3] Building level 13
[3] Building level 14
initial dot_x = 119835
Iter #1 residual = 0.00136935
Iter #2 residual = 0.000730434
Iter #3 residual = 0.00044876
Iter #4 residual = 0.00024655
Iter #5 residual = 0.000169392
GPU: 5 iters: 1.60903 s: 2.03364 GB/s
GPUAMG:  Solving for pd, Initial residual = 0.00306572, Final residual = 9.61038e-05, No Iterations 5
[3] Building level 0
[1] Building level 0
[2] Building level 0
[0] Building level 0
[3] Building level 1
[0] Building level 1
[2] Building level 1
[1] Building level 1
[0] Building level 2
[2] Building level 2
[3] Building level 2
[1] Building level 2
[0] Building level 3
[2] Building level 3
[3] Building level 3
[1] Building level 3
[0] Building level 4
[2] Building level 4
[1] Building level 4
[3] Building level 4
[0] Building level 5
[1] Building level 5
[2] Building level 5
[3] Building level 5
[0] Building level 6
[1] Building level 6
[0] Building level 7
[2] Building level 6
[0] Building level 8
[1] Building level 7
[3] Building level 6
[0] Building level 9
[0] Building level 10
[0] Building level 11
[0] Building level 12
[1] Building level 8
[0] Building level 13
[0] Building level 14
14 Level construction complete
[2] Building level 7
[1] Building level 9
[1] Building level 10
[1] Building level 11
[2] Building level 8
[1] Building level 12
[1] Building level 13
[1] Building level 14
[3] Building level 7
[2] Building level 9
[2] Building level 10
[2] Building level 11
[2] Building level 12
[2] Building level 13
[2] Building level 14
[3] Building level 8
[3] Building level 9
[3] Building level 10
[3] Building level 11
[3] Building level 12
[3] Building level 13
[3] Building level 14
initial dot_x = 112078
Iter #1 residual = 0.000453656
Iter #2 residual = 0.000171546
Iter #3 residual = 7.82905e-05
Iter #4 residual = 3.9571e-05
Iter #5 residual = 2.29136e-05
Iter #6 residual = 1.51066e-05
Iter #7 residual = 1.14026e-05
Iter #8 residual = 5.53913e-06
Iter #9 residual = 4.98904e-06
Iter #10 residual = 7.66752e-06
Iter #11 residual = 5.42244e-06
Iter #12 residual = 2.89382e-06
Iter #13 residual = 1.58994e-06
Iter #14 residual = 1.41105e-06
Iter #15 residual = 1.34499e-06
Iter #16 residual = 1.11061e-06
Iter #17 residual = 1.29362e-06
Iter #18 residual = 9.71447e-07
Iter #19 residual = 1.93971e-06
Iter #20 residual = 1.74896e-06
Iter #21 residual = 1.04629e-06
Iter #22 residual = 9.26243e-07
Iter #23 residual = 4.46339e-07
Iter #24 residual = 2.61723e-07
Iter #25 residual = 2.84769e-07
Iter #26 residual = 1.60686e-07
Iter #27 residual = 1.48119e-07
Iter #28 residual = 1.54039e-07
Iter #29 residual = 1.06606e-07
Iter #30 residual = 1.21368e-07
Iter #31 residual = 1.25349e-07
Iter #32 residual = 1.47572e-07
GPU: 32 iters: 8.84941 s: 2.36649 GB/s
GPUAMG:  Solving for pd, Initial residual = 0.00260685, Final residual = 6.46011e-08, No Iterations 32
time step continuity errors : sum local = 3.34097e-12, global = -8.6013e-25, cumulative = 2.10582e-24
ExecutionTime = 210.06 s  ClockTime = 223 s

Courant Number mean: 1.3576e-05 max: 0.00482757 velocity magnitude: 0.0754308
Time = 0.004

MULES: Solving for alpha1
Liquid phase volume fraction = 0.00275421  Min(alpha1) = -2.54053e-30  Max(alpha1) = 1
MULES: Solving for alpha1
Liquid phase volume fraction = 0.00275421  Min(alpha1) = -1.98214e-33  Max(alpha1) = 1
[3] Building level 0
[1] Building level 0
[2] Building level 0
[0] Building level 0
[3] Building level 1
[0] Building level 1
[1] Building level 1
[2] Building level 1
[0] Building level 2
Reconstruction on level 2
[1] Building level 2
[1] Building level 3
Creating AMGLevel 
[0] Building level 3
Reconstruction on level 3
[3] Building level 2
[2] Building level 2
[1] Building level 4
Creating AMGLevel 
[0] Building level 4
Reconstruction on level 4
[1] Building level 5
Creating AMGLevel 
[0] Building level 5
Reconstruction on level 5
[1] Building level 6
[3] Building level 3
Creating AMGLevel 
[0] Building level 6
Reconstruction on level 6
[2] Building level 3
[1] Building level 7
Creating AMGLevel 
[0] Building level 7
Reconstruction on level 7
[1] Building level 8
[1] Building level 9
Creating AMGLevel 
[0] Building level 8
Reconstruction on level 8
[1] Building level 10
[1] Building level 11
[1] Building level 12
Creating AMGLevel 
[0] Building level 9
Reconstruction on level 9
[1] Building level 13
[1] Building level 14
Creating AMGLevel 
[0] Building level 10
Reconstruction on level 10
Creating AMGLevel 
[0] Building level 11
Reconstruction on level 11
Creating AMGLevel 
[0] Building level 12
Reconstruction on level 12
Creating AMGLevel 
[0] Building level 13
Reconstruction on level 13
Creating AMGLevel 
[0] Building level 14
Reconstruction on level 14
Creating AMGLevel 
14 Level construction complete
[2] Building level 4
[3] Building level 4
[2] Building level 5
[3] Building level 5
[2] Building level 6
[3] Building level 6
[2] Building level 7
[3] Building level 7
[2] Building level 8
[3] Building level 8
[2] Building level 9
[3] Building level 9
[2] Building level 10
[3] Building level 10
[2] Building level 11
[2] Building level 12
[3] Building level 11
[2] Building level 13
[3] Building level 12
[2] Building level 14
[3] Building level 13
[3] Building level 14
initial dot_x = 114487
Iter #1 residual = 0.00145836
Iter #2 residual = 0.000755384
Iter #3 residual = 0.00039805
Iter #4 residual = 0.000231786
GPU: 4 iters: 1.32053 s: 1.98234 GB/s
GPUAMG:  Solving for pd, Initial residual = 0.00341863, Final residual = 0.000136363, No Iterations 4
[3] Building level 0
[0] Building level 0
[1] Building level 0
[2] Building level 0
[3] Building level 1
[2] Building level 1
[0] Building level 1
[1] Building level 1
[0] Building level 2
[3] Building level 2
[2] Building level 2
[1] Building level 2
[0] Building level 3
[3] Building level 3
[2] Building level 3
[1] Building level 3
[0] Building level 4
[1] Building level 4
[2] Building level 4
[3] Building level 4
[0] Building level 5
[1] Building level 5
[3] Building level 5
[2] Building level 5
[0] Building level 6
[1] Building level 6
[0] Building level 7
[3] Building level 6
[2] Building level 6
[0] Building level 8
[1] Building level 7
[0] Building level 9
[0] Building level 10
[0] Building level 11
[0] Building level 12
[0] Building level 13
[0] Building level 14
14 Level construction complete
[1] Building level 8
[3] Building level 7
[2] Building level 7
[1] Building level 9
[1] Building level 10
[1] Building level 11
[1] Building level 12
[1] Building level 13
[1] Building level 14
[3] Building level 8
[2] Building level 8
[3] Building level 9
[2] Building level 9
[3] Building level 10
[3] Building level 11
[2] Building level 10
[3] Building level 12
[3] Building level 13
[3] Building level 14
[2] Building level 11
[2] Building level 12
[2] Building level 13
[2] Building level 14
initial dot_x = 120503
Iter #1 residual = 0.00212493
Iter #2 residual = 0.00112906
Iter #3 residual = 0.000582839
Iter #4 residual = 0.000336864
Iter #5 residual = 0.00019423
GPU: 5 iters: 1.59178 s: 2.05568 GB/s
GPUAMG:  Solving for pd, Initial residual = 0.00321717, Final residual = 0.000117828, No Iterations 5
[0] Building level 0
[2] Building level 0
[1] Building level 0
[3] Building level 0
[0] Building level 1
[2] Building level 1
[3] Building level 1
[1] Building level 1
[0] Building level 2
[2] Building level 2
[3] Building level 2
[1] Building level 2
[0] Building level 3
[3] Building level 3
[2] Building level 3
[1] Building level 3
[0] Building level 4
[1] Building level 4
[3] Building level 4
[2] Building level 4
[0] Building level 5
[1] Building level 5
[3] Building level 5
[2] Building level 5
[0] Building level 6
[1] Building level 6
[3] Building level 6
[0] Building level 7
[2] Building level 6
[0] Building level 8
[1] Building level 7
[0] Building level 9
[3] Building level 7
[0] Building level 10
[0] Building level 11
[0] Building level 12
[0] Building level 13
[0] Building level 14
14 Level construction complete
[1] Building level 8
[2] Building level 7
[1] Building level 9
[3] Building level 8
[1] Building level 10
[1] Building level 11
[1] Building level 12
[1] Building level 13
[1] Building level 14
[3] Building level 9
[3] Building level 10
[3] Building level 11
[3] Building level 12
[2] Building level 8
[3] Building level 13
[3] Building level 14
[2] Building level 9
[2] Building level 10
[2] Building level 11
[2] Building level 12
[2] Building level 13
[2] Building level 14
initial dot_x = 113908
Iter #1 residual = 0.00084595
Iter #2 residual = 0.000454358
Iter #3 residual = 0.00021358
Iter #4 residual = 0.000118837
Iter #5 residual = 6.56081e-05
Iter #6 residual = 3.92494e-05
Iter #7 residual = 2.32447e-05
Iter #8 residual = 1.44775e-05
Iter #9 residual = 9.06934e-06
Iter #10 residual = 5.83027e-06
Iter #11 residual = 3.77504e-06
Iter #12 residual = 2.50286e-06
Iter #13 residual = 1.71008e-06
Iter #14 residual = 1.18499e-06
Iter #15 residual = 8.39605e-07
Iter #16 residual = 5.95865e-07
Iter #17 residual = 4.29208e-07
Iter #18 residual = 3.10068e-07
Iter #19 residual = 2.20538e-07
Iter #20 residual = 1.72672e-07
Iter #21 residual = 1.13221e-07
Iter #22 residual = 1.16783e-07
GPU: 22 iters: 6.08293 s: 2.36689 GB/s
GPUAMG:  Solving for pd, Initial residual = 0.00240697, Final residual = 5.73473e-08, No Iterations 22
time step continuity errors : sum local = 2.67704e-12, global = -1.22106e-24, cumulative = 8.84764e-25
ExecutionTime = 267.03 s  ClockTime = 281 s

Courant Number mean: 1.92532e-05 max: 0.00598208 velocity magnitude: 0.09347
Time = 0.005

MULES: Solving for alpha1
Liquid phase volume fraction = 0.00275421  Min(alpha1) = -3.32673e-30  Max(alpha1) = 1
MULES: Solving for alpha1
Liquid phase volume fraction = 0.00275421  Min(alpha1) = -1.57944e-29  Max(alpha1) = 1
[0] Building level 0
[1] Building level 0
[2] Building level 0
[3] Building level 0
[3] Building level 1
[0] Building level 1
[2] Building level 1
[1] Building level 1
[0] Building level 2
Reconstruction on level 2
[1] Building level 2
Creating AMGLevel 
[0] Building level 3
Reconstruction on level 3
[1] Building level 3
[2] Building level 2
[3] Building level 2
[1] Building level 4
Creating AMGLevel 
[0] Building level 4
Reconstruction on level 4
[1] Building level 5
Creating AMGLevel 
[0] Building level 5
Reconstruction on level 5
[3] Building level 3
[1] Building level 6
Creating AMGLevel 
[0] Building level 6
Reconstruction on level 6
[2] Building level 3
[1] Building level 7
Creating AMGLevel 
[0] Building level 7
Reconstruction on level 7
[1] Building level 8
Creating AMGLevel 
[0] Building level 8
Reconstruction on level 8
[1] Building level 9
Creating AMGLevel 
[0] Building level 9
Reconstruction on level 9
[1] Building level 10
[1] Building level 11
Creating AMGLevel 
[0] Building level 10
Reconstruction on level 10
[1] Building level 12
[1] Building level 13
[1] Building level 14
Creating AMGLevel 
[0] Building level 11
Reconstruction on level 11
Creating AMGLevel 
[0] Building level 12
Reconstruction on level 12
Creating AMGLevel 
[0] Building level 13
Reconstruction on level 13
Creating AMGLevel 
[0] Building level 14
Reconstruction on level 14
Creating AMGLevel 
14 Level construction complete
[3] Building level 4
[2] Building level 4
[3] Building level 5
[2] Building level 5
[3] Building level 6
[2] Building level 6
[3] Building level 7
[2] Building level 7
[3] Building level 8
[3] Building level 9
[2] Building level 8
[3] Building level 10
[3] Building level 11
[3] Building level 12
[3] Building level 13
[3] Building level 14
[2] Building level 9
[2] Building level 10
[2] Building level 11
[2] Building level 12
[2] Building level 13
[2] Building level 14
initial dot_x = 114657
Iter #1 residual = 0.00124823
Iter #2 residual = 0.000669883
Iter #3 residual = 0.000386153
Iter #4 residual = 0.000235435
Iter #5 residual = 0.000139913
Iter #6 residual = 0.000108159
GPU: 6 iters: 1.79827 s: 2.18356 GB/s
GPUAMG:  Solving for pd, Initial residual = 0.00215972, Final residual = 8.75013e-05, No Iterations 6
[0] Building level 0
[1] Building level 0
[3] Building level 0
[2] Building level 0
[2] Building level 1
[0] Building level 1
[3] Building level 1
[1] Building level 1
[0] Building level 2
[2] Building level 2
[3] Building level 2
[1] Building level 2
[0] Building level 3
[2] Building level 3
[3] Building level 3
[1] Building level 3
[0] Building level 4
[1] Building level 4
[2] Building level 4
[3] Building level 4
[0] Building level 5
[1] Building level 5
[3] Building level 5
[2] Building level 5
[0] Building level 6
[1] Building level 6
[3] Building level 6
[2] Building level 6
[0] Building level 7
[1] Building level 7
[0] Building level 8
[1] Building level 8
[3] Building level 7
[2] Building level 7
[0] Building level 9
[1] Building level 9
[0] Building level 10
[1] Building level 10
[0] Building level 11
[0] Building level 12
[1] Building level 11
[0] Building level 13
[1] Building level 12
[0] Building level 14
14 Level construction complete
[3] Building level 8
[1] Building level 13
[1] Building level 14
[2] Building level 8
[3] Building level 9
[3] Building level 10
[2] Building level 9
[3] Building level 11
[3] Building level 12
[3] Building level 13
[3] Building level 14
[2] Building level 10
[2] Building level 11
[2] Building level 12
[2] Building level 13
[2] Building level 14
initial dot_x = 119345
Iter #1 residual = 0.00102579
Iter #2 residual = 0.000542974
Iter #3 residual = 0.000302958
Iter #4 residual = 0.000221
Iter #5 residual = 0.000171204
Iter #6 residual = 0.00013545
Iter #7 residual = 0.000108861
Iter #8 residual = 9.02507e-05
GPU: 8 iters: 2.31107 s: 2.2654 GB/s
GPUAMG:  Solving for pd, Initial residual = 0.00179399, Final residual = 7.43183e-05, No Iterations 8
[2] Building level 0
[3] Building level 0
[0] Building level 0
[1] Building level 0
[3] Building level 1
[0] Building level 1
[2] Building level 1
[1] Building level 1
[2] Building level 2
[0] Building level 2
[3] Building level 2
[1] Building level 2
[0] Building level 3
[2] Building level 3
[3] Building level 3
[1] Building level 3
[0] Building level 4
[1] Building level 4
[3] Building level 4
[2] Building level 4
[1] Building level 5
[0] Building level 5
[3] Building level 5
[2] Building level 5
[1] Building level 6
[0] Building level 6
[3] Building level 6
[2] Building level 6
[1] Building level 7
[3] Building level 7
[0] Building level 7
[1] Building level 8
[3] Building level 8
[0] Building level 8
[2] Building level 7
[1] Building level 9
[3] Building level 9
[0] Building level 9
[1] Building level 10
[1] Building level 11
[3] Building level 10
[1] Building level 12
[0] Building level 10
[1] Building level 13
[1] Building level 14
[3] Building level 11
[0] Building level 11
[3] Building level 12
[0] Building level 12
[3] Building level 13
[0] Building level 13
[3] Building level 14
[0] Building level 14
14 Level construction complete
[2] Building level 8
[2] Building level 9
[2] Building level 10
[2] Building level 11
[2] Building level 12
[2] Building level 13
[2] Building level 14
initial dot_x = 115762
Iter #1 residual = 0.000555933
Iter #2 residual = 0.000343338
Iter #3 residual = 0.000189525
Iter #4 residual = 0.000139206
Iter #5 residual = 0.000108838
Iter #6 residual = 8.77807e-05
Iter #7 residual = 7.15368e-05
Iter #8 residual = 5.89108e-05
Iter #9 residual = 4.9434e-05
Iter #10 residual = 4.04843e-05
Iter #11 residual = 3.2858e-05
Iter #12 residual = 2.72394e-05
Iter #13 residual = 1.96508e-05
Iter #14 residual = 1.30123e-05
Iter #15 residual = 8.9699e-06
Iter #16 residual = 6.07291e-06
Iter #17 residual = 4.52384e-06
Iter #18 residual = 3.38556e-06
Iter #19 residual = 2.19759e-06
Iter #20 residual = 1.54254e-06
Iter #21 residual = 1.1249e-06
Iter #22 residual = 8.2442e-07
Iter #23 residual = 5.97219e-07
Iter #24 residual = 4.76609e-07
Iter #25 residual = 3.73355e-07
Iter #26 residual = 3.2259e-07
Iter #27 residual = 2.38079e-07
Iter #28 residual = 1.89189e-07
Iter #29 residual = 1.38551e-07
GPU: 29 iters: 7.69574 s: 2.46613 GB/s
GPUAMG:  Solving for pd, Initial residual = 0.00145974, Final residual = 8.83905e-08, No Iterations 29
time step continuity errors : sum local = 4.13594e-12, global = 1.36226e-25, cumulative = 1.02099e-24
ExecutionTime = 327.18 s  ClockTime = 342 s

Courant Number mean: 2.43935e-05 max: 0.00684033 velocity magnitude: 0.10688
Time = 0.006

MULES: Solving for alpha1
Liquid phase volume fraction = 0.00275421  Min(alpha1) = -9.91277e-32  Max(alpha1) = 1
MULES: Solving for alpha1
Liquid phase volume fraction = 0.00275421  Min(alpha1) = -2.39329e-29  Max(alpha1) = 1
[0] Building level 0
[2] Building level 0
[1] Building level 0
[3] Building level 0
[3] Building level 1
[2] Building level 1
[0] Building level 1
Reconstruction on level 1
[1] Building level 1
[1] Building level 2
[1] Building level 3
Creating AMGLevel 
[0] Building level 2
Reconstruction on level 2
[2] Building level 2
[3] Building level 2
[1] Building level 4
[1] Building level 5
Creating AMGLevel 
[0] Building level 3
Reconstruction on level 3
[2] Building level 3
[3] Building level 3
[1] Building level 6
[1] Building level 7
[1] Building level 8
[1] Building level 9
[1] Building level 10
[1] Building level 11
[1] Building level 12
[1] Building level 13
[1] Building level 14
Creating AMGLevel 
[0] Building level 4
Reconstruction on level 4
[3] Building level 4
[2] Building level 4
Creating AMGLevel 
[0] Building level 5
Reconstruction on level 5
[3] Building level 5
[2] Building level 5
Creating AMGLevel 
[0] Building level 6
Reconstruction on level 6
[3] Building level 6
[2] Building level 6
Creating AMGLevel 
[0] Building level 7
Reconstruction on level 7
[3] Building level 7
Creating AMGLevel 
[0] Building level 8
Reconstruction on level 8
[2] Building level 7
[3] Building level 8
Creating AMGLevel 
[0] Building level 9
Reconstruction on level 9
Creating AMGLevel 
[0] Building level 10
Reconstruction on level 10
[2] Building level 8
[3] Building level 9
Creating AMGLevel 
[0] Building level 11
Reconstruction on level 11
Creating AMGLevel 
[0] Building level 12
Reconstruction on level 12
Creating AMGLevel 
[0] Building level 13
Reconstruction on level 13
Creating AMGLevel 
[0] Building level 14
Reconstruction on level 14
[3] Building level 10
Creating AMGLevel 
14 Level construction complete
[2] Building level 9
[3] Building level 11
[3] Building level 12
[3] Building level 13
[3] Building level 14
[2] Building level 10
[2] Building level 11
[2] Building level 12
[2] Building level 13
[2] Building level 14
initial dot_x = 113602
Iter #1 residual = 0.00152116
Iter #2 residual = 0.000836041
Iter #3 residual = 0.000477274
Iter #4 residual = 0.000298031
Iter #5 residual = 0.000182107
Iter #6 residual = 0.000116491
GPU: 6 iters: 1.78741 s: 2.19682 GB/s
GPUAMG:  Solving for pd, Initial residual = 0.00228223, Final residual = 7.06292e-05, No Iterations 6
[1] Building level 0
[3] Building level 0
[0] Building level 0
[2] Building level 0
[0] Building level 1
[2] Building level 1
[3] Building level 1
[1] Building level 1
[2] Building level 2
[3] Building level 2
[0] Building level 2
[1] Building level 2
[2] Building level 3
[3] Building level 3
[0] Building level 3
[1] Building level 3
[1] Building level 4
[2] Building level 4
[3] Building level 4
[0] Building level 4
[1] Building level 5
[2] Building level 5
[3] Building level 5
[0] Building level 5
[1] Building level 6
[2] Building level 6
[3] Building level 6
[0] Building level 6
[1] Building level 7
[2] Building level 7
[3] Building level 7
[0] Building level 7
[1] Building level 8
[1] Building level 9
[2] Building level 8
[1] Building level 10
[3] Building level 8
[0] Building level 8
[1] Building level 11
[1] Building level 12
[1] Building level 13
[1] Building level 14
[2] Building level 9
[3] Building level 9
[0] Building level 9
[2] Building level 10
[3] Building level 10
[2] Building level 11
[2] Building level 12
[2] Building level 13
[0] Building level 10
[3] Building level 11
[2] Building level 14
[3] Building level 12
[0] Building level 11
[3] Building level 13
[3] Building level 14
[0] Building level 12
[0] Building level 13
[0] Building level 14
14 Level construction complete
initial dot_x = 119727
Iter #1 residual = 0.00118596
Iter #2 residual = 0.000644339
Iter #3 residual = 0.000364564
Iter #4 residual = 0.000225558
Iter #5 residual = 0.000136846
Iter #6 residual = 8.63792e-05
GPU: 6 iters: 1.78276 s: 2.20255 GB/s
GPUAMG:  Solving for pd, Initial residual = 0.00115061, Final residual = 5.48773e-05, No Iterations 6
[2] Building level 0
[1] Building level 0
[3] Building level 0
[0] Building level 0
[3] Building level 1
[0] Building level 1
[2] Building level 1
[1] Building level 1
[2] Building level 2
[0] Building level 2
[3] Building level 2
[1] Building level 2
[2] Building level 3
[0] Building level 3
[3] Building level 3
[1] Building level 3
[2] Building level 4
[3] Building level 4
[0] Building level 4
[1] Building level 4
[3] Building level 5
[2] Building level 5
[0] Building level 5
[1] Building level 5
[3] Building level 6
[2] Building level 6
[0] Building level 6
[1] Building level 6
[3] Building level 7
[0] Building level 7
[2] Building level 7
[1] Building level 7
[3] Building level 8
[0] Building level 8
[2] Building level 8
[1] Building level 8
[3] Building level 9
[3] Building level 10
[0] Building level 9
[3] Building level 11
[2] Building level 9
[3] Building level 12
[1] Building level 9
[3] Building level 13
[3] Building level 14
[0] Building level 10
[2] Building level 10
[0] Building level 11
[1] Building level 10
[0] Building level 12
[0] Building level 13
[2] Building level 11
[0] Building level 14
[1] Building level 11
14 Level construction complete
[2] Building level 12
[1] Building level 12
[2] Building level 13
[1] Building level 13
[2] Building level 14
[1] Building level 14
initial dot_x = 114882
Iter #1 residual = 0.000251873
Iter #2 residual = 0.000150637
Iter #3 residual = 8.75399e-05
Iter #4 residual = 5.51143e-05
Iter #5 residual = 3.50508e-05
Iter #6 residual = 2.31513e-05
Iter #7 residual = 1.41856e-05
Iter #8 residual = 9.54067e-06
Iter #9 residual = 6.59443e-06
Iter #10 residual = 4.21991e-06
Iter #11 residual = 3.64938e-06
Iter #12 residual = 2.36733e-06
Iter #13 residual = 1.83325e-06
Iter #14 residual = 1.39014e-06
Iter #15 residual = 7.60186e-07
Iter #16 residual = 6.10513e-07
Iter #17 residual = 4.92833e-07
Iter #18 residual = 3.25988e-07
Iter #19 residual = 3.52832e-07
Iter #20 residual = 1.86038e-07
Iter #21 residual = 1.04041e-07
GPU: 21 iters: 5.60736 s: 2.45092 GB/s
GPUAMG:  Solving for pd, Initial residual = 0.000720402, Final residual = 7.6708e-08, No Iterations 21
time step continuity errors : sum local = 3.72244e-12, global = 7.52895e-24, cumulative = 8.54995e-24
ExecutionTime = 385.39 s  ClockTime = 402 s

Courant Number mean: 2.95097e-05 max: 0.00764227 velocity magnitude: 0.11941
Time = 0.007

MULES: Solving for alpha1
Liquid phase volume fraction = 0.00275421  Min(alpha1) = -2.73262e-29  Max(alpha1) = 1
MULES: Solving for alpha1
Liquid phase volume fraction = 0.00275421  Min(alpha1) = -7.93199e-31  Max(alpha1) = 1
[3] Building level 0
[1] Building level 0
[2] Building level 0
[0] Building level 0
[3] Building level 1
[2] Building level 1
[0] Building level 1
Reconstruction on level 1
[1] Building level 1
[2] Building level 2
[1] Building level 2
[1] Building level 3
[2] Building level 3
[3] Building level 2
Creating AMGLevel 
[0] Building level 2
Reconstruction on level 2
[1] Building level 4
[2] Building level 4
[1] Building level 5
[2] Building level 5
Creating AMGLevel 
[3] Building level 3
[0] Building level 3
Reconstruction on level 3
[1] Building level 6
[2] Building level 6
[1] Building level 7
[2] Building level 7
[1] Building level 8
[1] Building level 9
[2] Building level 8
[1] Building level 10
[1] Building level 11
[1] Building level 12
[2] Building level 9
[1] Building level 13
[1] Building level 14
[2] Building level 10
[2] Building level 11
[2] Building level 12
[2] Building level 13
[2] Building level 14
Creating AMGLevel 
[0] Building level 4
Reconstruction on level 4
[3] Building level 4
Creating AMGLevel 
[0] Building level 5
Reconstruction on level 5
[3] Building level 5
Creating AMGLevel 
[0] Building level 6
Reconstruction on level 6
[3] Building level 6
Creating AMGLevel 
[0] Building level 7
Reconstruction on level 7
[3] Building level 7
Creating AMGLevel 
[0] Building level 8
Reconstruction on level 8
Creating AMGLevel 
[0] Building level 9
Reconstruction on level 9
[3] Building level 8
Creating AMGLevel 
[0] Building level 10
Reconstruction on level 10
Creating AMGLevel 
[0] Building level 11
Reconstruction on level 11
Creating AMGLevel 
[0] Building level 12
Reconstruction on level 12
[3] Building level 9
Creating AMGLevel 
[0] Building level 13
Reconstruction on level 13
Creating AMGLevel 
[0] Building level 14
Reconstruction on level 14
Creating AMGLevel 
14 Level construction complete
[3] Building level 10
[3] Building level 11
[3] Building level 12
[3] Building level 13
[3] Building level 14
initial dot_x = 113921
Iter #1 residual = 0.00147515
Iter #2 residual = 0.000800998
Iter #3 residual = 0.000451781
Iter #4 residual = 0.000274389
Iter #5 residual = 0.000164798
GPU: 5 iters: 1.50557 s: 2.17338 GB/s
GPUAMG:  Solving for pd, Initial residual = 0.0023254, Final residual = 0.000103393, No Iterations 5
[1] Building level 0
[3] Building level 0
[0] Building level 0
[2] Building level 0
[0] Building level 1
[3] Building level 1
[2] Building level 1
[1] Building level 1
[2] Building level 2
[3] Building level 2
[1] Building level 2
[0] Building level 2
[2] Building level 3
[1] Building level 3
[0] Building level 3
[3] Building level 3
[2] Building level 4
[0] Building level 4
[1] Building level 4
[3] Building level 4
[2] Building level 5
[0] Building level 5
[1] Building level 5
[3] Building level 5
[2] Building level 6
[0] Building level 6
[1] Building level 6
[3] Building level 6
[2] Building level 7
[1] Building level 7
[0] Building level 7
[2] Building level 8
[2] Building level 9
[3] Building level 7
[2] Building level 10
[0] Building level 8
[1] Building level 8
[2] Building level 11
[2] Building level 12
[2] Building level 13
[2] Building level 14
[0] Building level 9
[1] Building level 9
[0] Building level 10
[1] Building level 10
[0] Building level 11
[1] Building level 11
[0] Building level 12
[3] Building level 8
[1] Building level 12
[0] Building level 13
[0] Building level 14
[1] Building level 13
14 Level construction complete
[1] Building level 14
[3] Building level 9
[3] Building level 10
[3] Building level 11
[3] Building level 12
[3] Building level 13
[3] Building level 14
initial dot_x = 119223
Iter #1 residual = 0.00125425
Iter #2 residual = 0.000655559
Iter #3 residual = 0.000365725
Iter #4 residual = 0.000218773
Iter #5 residual = 0.000130494
Iter #6 residual = 8.14237e-05
GPU: 6 iters: 1.75437 s: 2.2382 GB/s
GPUAMG:  Solving for pd, Initial residual = 0.00110462, Final residual = 4.96417e-05, No Iterations 6
[1] Building level 0
[3] Building level 0
[2] Building level 0
[0] Building level 0
[3] Building level 1
[2] Building level 1
[1] Building level 1
[0] Building level 1
[2] Building level 2
[3] Building level 2
[0] Building level 2
[1] Building level 2
[2] Building level 3
[3] Building level 3
[0] Building level 3
[1] Building level 3
[2] Building level 4
[3] Building level 4
[0] Building level 4
[1] Building level 4
[2] Building level 5
[3] Building level 5
[0] Building level 5
[1] Building level 5
[2] Building level 6
[3] Building level 6
[2] Building level 7
[0] Building level 6
[1] Building level 6
[2] Building level 8
[2] Building level 9
[3] Building level 7
[2] Building level 10
[2] Building level 11
[2] Building level 12
[2] Building level 13
[2] Building level 14
[0] Building level 7
[1] Building level 7
[3] Building level 8
[0] Building level 8
[1] Building level 8
[3] Building level 9
[0] Building level 9
[3] Building level 10
[3] Building level 11
[0] Building level 10
[3] Building level 12
[1] Building level 9
[3] Building level 13
[3] Building level 14
[0] Building level 11
[0] Building level 12
[0] Building level 13
[0] Building level 14
14 Level construction complete
[1] Building level 10
[1] Building level 11
[1] Building level 12
[1] Building level 13
[1] Building level 14
initial dot_x = 114494
Iter #1 residual = 0.000181528
Iter #2 residual = 0.000108102
Iter #3 residual = 6.19683e-05
Iter #4 residual = 3.81484e-05
Iter #5 residual = 2.50977e-05
Iter #6 residual = 1.95362e-05
Iter #7 residual = 1.36417e-05
Iter #8 residual = 8.97183e-06
Iter #9 residual = 6.34017e-06
Iter #10 residual = 4.99748e-06
Iter #11 residual = 3.82192e-06
Iter #12 residual = 2.35428e-06
Iter #13 residual = 1.6641e-06
Iter #14 residual = 1.35897e-06
Iter #15 residual = 1.04255e-06
Iter #16 residual = 7.50979e-07
Iter #17 residual = 5.06126e-07
Iter #18 residual = 3.6994e-07
Iter #19 residual = 2.63785e-07
Iter #20 residual = 1.83241e-07
Iter #21 residual = 1.35142e-07
GPU: 21 iters: 5.53183 s: 2.48438 GB/s
GPUAMG:  Solving for pd, Initial residual = 0.00054971, Final residual = 9.24309e-08, No Iterations 21
time step continuity errors : sum local = 4.2839e-12, global = 2.90327e-24, cumulative = 1.14532e-23
ExecutionTime = 443.23 s  ClockTime = 460 s

Courant Number mean: 3.46306e-05 max: 0.00834949 velocity magnitude: 0.130461
Time = 0.008

MULES: Solving for alpha1
Liquid phase volume fraction = 0.00275421  Min(alpha1) = -1.72801e-29  Max(alpha1) = 1
MULES: Solving for alpha1
Liquid phase volume fraction = 0.00275421  Min(alpha1) = -4.28302e-30  Max(alpha1) = 1
[0] Building level 0
[2] Building level 0
[3] Building level 0
[1] Building level 0
[3] Building level 1
[2] Building level 1
[0] Building level 1
Reconstruction on level 1
[1] Building level 1
[2] Building level 2
[1] Building level 2
[1] Building level 3
[2] Building level 3
Creating AMGLevel 
[0] Building level 2
Reconstruction on level 2
[3] Building level 2
[1] Building level 4
[2] Building level 4
[1] Building level 5
[2] Building level 5
Creating AMGLevel 
[0] Building level 3
Reconstruction on level 3
[3] Building level 3
[1] Building level 6
[2] Building level 6
[1] Building level 7
[2] Building level 7
[1] Building level 8
[2] Building level 8
[1] Building level 9
[1] Building level 10
[2] Building level 9
[1] Building level 11
[1] Building level 12
[1] Building level 13
[2] Building level 10
[1] Building level 14
[2] Building level 11
[2] Building level 12
[2] Building level 13
[2] Building level 14
Creating AMGLevel 
[0] Building level 4
Reconstruction on level 4
[3] Building level 4
Creating AMGLevel 
[0] Building level 5
Reconstruction on level 5
[3] Building level 5
Creating AMGLevel 
[0] Building level 6
Reconstruction on level 6
[3] Building level 6
Creating AMGLevel 
[0] Building level 7
Reconstruction on level 7
[3] Building level 7
Creating AMGLevel 
[0] Building level 8
Reconstruction on level 8
[3] Building level 8
Creating AMGLevel 
[0] Building level 9
Reconstruction on level 9
Creating AMGLevel 
[0] Building level 10
Reconstruction on level 10
[3] Building level 9
Creating AMGLevel 
[0] Building level 11
Reconstruction on level 11
Creating AMGLevel 
[0] Building level 12
Reconstruction on level 12
Creating AMGLevel 
[0] Building level 13
Reconstruction on level 13
Creating AMGLevel 
[0] Building level 14
Reconstruction on level 14
[3] Building level 10
Creating AMGLevel 
14 Level construction complete
[3] Building level 11
[3] Building level 12
[3] Building level 13
[3] Building level 14
initial dot_x = 113861
Iter #1 residual = 0.00143086
Iter #2 residual = 0.000772781
Iter #3 residual = 0.000461747
Iter #4 residual = 0.000261395
Iter #5 residual = 0.00017479
Iter #6 residual = 0.000137266
GPU: 6 iters: 1.82634 s: 2.14999 GB/s
GPUAMG:  Solving for pd, Initial residual = 0.00236309, Final residual = 0.000100696, No Iterations 6
[3] Building level 0
[0] Building level 0
[2] Building level 0
[1] Building level 0
[3] Building level 1
[0] Building level 1
[1] Building level 1
[2] Building level 1
[2] Building level 2
[3] Building level 2
[1] Building level 2
[0] Building level 2
[2] Building level 3
[0] Building level 3
[3] Building level 3
[1] Building level 3
[2] Building level 4
[0] Building level 4
[1] Building level 4
[3] Building level 4
[2] Building level 5
[0] Building level 5
[1] Building level 5
[3] Building level 5
[2] Building level 6
[0] Building level 6
[1] Building level 6
[3] Building level 6
[2] Building level 7
[2] Building level 8
[0] Building level 7
[1] Building level 7
[2] Building level 9
[2] Building level 10
[3] Building level 7
[2] Building level 11
[2] Building level 12
[2] Building level 13
[2] Building level 14
[0] Building level 8
[1] Building level 8
[0] Building level 9
[1] Building level 9
[0] Building level 10
[3] Building level 8
[0] Building level 11
[1] Building level 10
[0] Building level 12
[0] Building level 13
[0] Building level 14
14 Level construction complete
[1] Building level 11
[1] Building level 12
[1] Building level 13
[1] Building level 14
[3] Building level 9
[3] Building level 10
[3] Building level 11
[3] Building level 12
[3] Building level 13
[3] Building level 14
initial dot_x = 120952
Iter #1 residual = 0.00126185
Iter #2 residual = 0.000661236
Iter #3 residual = 0.000421253
Iter #4 residual = 0.000235371
Iter #5 residual = 0.000169935
Iter #6 residual = 0.000128447
Iter #7 residual = 0.000104497
Iter #8 residual = 8.10966e-05
Iter #9 residual = 6.70543e-05
GPU: 9 iters: 2.60447 s: 2.26147 GB/s
GPUAMG:  Solving for pd, Initial residual = 0.00107736, Final residual = 5.16802e-05, No Iterations 9
[2] Building level 0
[3] Building level 0
[1] Building level 0
[0] Building level 0
[3] Building level 1
[1] Building level 1
[2] Building level 1
[0] Building level 1
[2] Building level 2
[0] Building level 2
[3] Building level 2
[1] Building level 2
[2] Building level 3
[0] Building level 3
[3] Building level 3
[1] Building level 3
[2] Building level 4
[0] Building level 4
[3] Building level 4
[1] Building level 4
[2] Building level 5
[0] Building level 5
[3] Building level 5
[1] Building level 5
[2] Building level 6
[0] Building level 6
[3] Building level 6
[2] Building level 7
[1] Building level 6
[0] Building level 7
[2] Building level 8
[2] Building level 9
[2] Building level 10
[3] Building level 7
[0] Building level 8
[2] Building level 11
[2] Building level 12
[2] Building level 13
[2] Building level 14
[0] Building level 9
[1] Building level 7
[0] Building level 10
[3] Building level 8
[0] Building level 11
[0] Building level 12
[0] Building level 13
[0] Building level 14
14 Level construction complete
[3] Building level 9
[1] Building level 8
[3] Building level 10
[3] Building level 11
[3] Building level 12
[3] Building level 13
[3] Building level 14
[1] Building level 9
[1] Building level 10
[1] Building level 11
[1] Building level 12
[1] Building level 13
[1] Building level 14
initial dot_x = 113695
Iter #1 residual = 0.000192695
Iter #2 residual = 0.000119243
Iter #3 residual = 7.86959e-05
Iter #4 residual = 5.97012e-05
Iter #5 residual = 4.87291e-05
Iter #6 residual = 3.7682e-05
Iter #7 residual = 2.80398e-05
Iter #8 residual = 2.22743e-05
Iter #9 residual = 1.94068e-05
Iter #10 residual = 1.63949e-05
Iter #11 residual = 1.44903e-05
Iter #12 residual = 1.19155e-05
Iter #13 residual = 1.04704e-05
Iter #14 residual = 8.7011e-06
Iter #15 residual = 7.95773e-06
Iter #16 residual = 6.71063e-06
Iter #17 residual = 6.80047e-06
Iter #18 residual = 4.13078e-06
Iter #19 residual = 3.53414e-06
Iter #20 residual = 2.90069e-06
Iter #21 residual = 2.61584e-06
Iter #22 residual = 2.10853e-06
Iter #23 residual = 1.95495e-06
Iter #24 residual = 2.07617e-06
Iter #25 residual = 1.24571e-06
Iter #26 residual = 1.1209e-06
Iter #27 residual = 4.51507e-07
Iter #28 residual = 2.32564e-07
Iter #29 residual = 1.9731e-07
Iter #30 residual = 1.38193e-07
Iter #31 residual = 1.79491e-07
GPU: 31 iters: 8.35664 s: 2.42772 GB/s
GPUAMG:  Solving for pd, Initial residual = 0.000481364, Final residual = 9.04479e-08, No Iterations 31
time step continuity errors : sum local = 4.29831e-12, global = 4.52502e-24, cumulative = 1.59782e-23
ExecutionTime = 505.04 s  ClockTime = 523 s

Courant Number mean: 3.97656e-05 max: 0.00903214 velocity magnitude: 0.140375
Time = 0.009

MULES: Solving for alpha1
Liquid phase volume fraction = 0.00275421  Min(alpha1) = -3.70289e-30  Max(alpha1) = 1
MULES: Solving for alpha1
Liquid phase volume fraction = 0.00275421  Min(alpha1) = -8.58002e-30  Max(alpha1) = 1
[3] Building level 0
[1] Building level 0
[0] Building level 0
[2] Building level 0
[3] Building level 1
[2] Building level 1
[0] Building level 1
[1] Building level 1
[2] Building level 2
[0] Building level 2
Reconstruction on level 2
Creating AMGLevel 
[0] Building level 3
Reconstruction on level 3
[2] Building level 3
[3] Building level 2
Creating AMGLevel 
[1] Building level 2
[0] Building level 4
Reconstruction on level 4
[2] Building level 4
Creating AMGLevel 
[0] Building level 5
Reconstruction on level 5
[2] Building level 5
[3] Building level 3
Creating AMGLevel 
[0] Building level 6
Reconstruction on level 6
[1] Building level 3
[2] Building level 6
Creating AMGLevel 
[0] Building level 7
Reconstruction on level 7
Creating AMGLevel 
[2] Building level 7
[0] Building level 8
Reconstruction on level 8
Creating AMGLevel 
[0] Building level 9
Reconstruction on level 9
Creating AMGLevel 
[0] Building level 10
Reconstruction on level 10
[2] Building level 8
Creating AMGLevel 
[0] Building level 11
Reconstruction on level 11
Creating AMGLevel 
[0] Building level 12
Reconstruction on level 12
Creating AMGLevel 
[0] Building level 13
Reconstruction on level 13
Creating AMGLevel 
[0] Building level 14
Reconstruction on level 14
Creating AMGLevel 
14 Level construction complete
[2] Building level 9
[2] Building level 10
[2] Building level 11
[2] Building level 12
[2] Building level 13
[2] Building level 14
[3] Building level 4
[1] Building level 4
[3] Building level 5
[1] Building level 5
[3] Building level 6
[1] Building level 6
[3] Building level 7
[1] Building level 7
[3] Building level 8
[3] Building level 9
[1] Building level 8
[3] Building level 10
[3] Building level 11
[3] Building level 12
[1] Building level 9
[3] Building level 13
[3] Building level 14
[1] Building level 10
[1] Building level 11
[1] Building level 12
[1] Building level 13
[1] Building level 14
initial dot_x = 114032
Iter #1 residual = 0.00144767
Iter #2 residual = 0.000803711
Iter #3 residual = 0.000465834
Iter #4 residual = 0.000284866
Iter #5 residual = 0.00017564
GPU: 5 iters: 1.46061 s: 2.24029 GB/s
GPUAMG:  Solving for pd, Initial residual = 0.00242386, Final residual = 0.000110678, No Iterations 5
[0] Building level 0
[1] Building level 0
[3] Building level 0
[2] Building level 0
[1] Building level 1
[3] Building level 1
[0] Building level 1
[2] Building level 1
[2] Building level 2
[1] Building level 2
[0] Building level 2
[3] Building level 2
[2] Building level 3
[1] Building level 3
[3] Building level 3
[0] Building level 3
[1] Building level 4
[2] Building level 4
[3] Building level 4
[0] Building level 4
[1] Building level 5
[2] Building level 5
[3] Building level 5
[0] Building level 5
[1] Building level 6
[2] Building level 6
[3] Building level 6
[0] Building level 6
[1] Building level 7
[2] Building level 7
[1] Building level 8
[2] Building level 8
[0] Building level 7
[1] Building level 9
[3] Building level 7
[1] Building level 10
[2] Building level 9
[1] Building level 11
[1] Building level 12
[1] Building level 13
[1] Building level 14
[2] Building level 10
[2] Building level 11
[2] Building level 12
[2] Building level 13
[2] Building level 14
[0] Building level 8
[3] Building level 8
[0] Building level 9
[3] Building level 9
[0] Building level 10
[3] Building level 10
[0] Building level 11
[0] Building level 12
[3] Building level 11
[0] Building level 13
[0] Building level 14
14 Level construction complete
[3] Building level 12
[3] Building level 13
[3] Building level 14
initial dot_x = 119787
Iter #1 residual = 0.00124257
Iter #2 residual = 0.000666082
Iter #3 residual = 0.000380852
Iter #4 residual = 0.000229879
Iter #5 residual = 0.000140409
Iter #6 residual = 8.78348e-05
Iter #7 residual = 5.49863e-05
GPU: 7 iters: 1.94344 s: 2.3572 GB/s
GPUAMG:  Solving for pd, Initial residual = 0.00103842, Final residual = 3.48562e-05, No Iterations 7
[0] Building level 0
[3] Building level 0
[2] Building level 0
[1] Building level 0
[3] Building level 1
[2] Building level 1
[0] Building level 1
[1] Building level 1
[2] Building level 2
[0] Building level 2
[3] Building level 2
[1] Building level 2
[2] Building level 3
[3] Building level 3
[0] Building level 3
[1] Building level 3
[2] Building level 4
[1] Building level 4
[3] Building level 4
[0] Building level 4
[2] Building level 5
[1] Building level 5
[3] Building level 5
[0] Building level 5
[2] Building level 6
[1] Building level 6
[3] Building level 6
[0] Building level 6
[2] Building level 7
[1] Building level 7
[2] Building level 8
[3] Building level 7
[1] Building level 8
[0] Building level 7
[2] Building level 9
[1] Building level 9
[2] Building level 10
[1] Building level 10
[2] Building level 11
[3] Building level 8
[1] Building level 11
[2] Building level 12
[2] Building level 13
[1] Building level 12
[2] Building level 14
[1] Building level 13
[1] Building level 14
[0] Building level 8
[3] Building level 9
[0] Building level 9
[3] Building level 10
[3] Building level 11
[3] Building level 12
[0] Building level 10
[3] Building level 13
[3] Building level 14
[0] Building level 11
[0] Building level 12
[0] Building level 13
[0] Building level 14
14 Level construction complete
initial dot_x = 114525
Iter #1 residual = 0.000161016
Iter #2 residual = 9.97312e-05
Iter #3 residual = 6.09482e-05
Iter #4 residual = 3.81409e-05
Iter #5 residual = 2.41013e-05
Iter #6 residual = 1.52586e-05
Iter #7 residual = 9.66326e-06
Iter #8 residual = 6.0458e-06
Iter #9 residual = 3.76945e-06
Iter #10 residual = 2.32612e-06
Iter #11 residual = 1.47916e-06
Iter #12 residual = 9.48743e-07
Iter #13 residual = 6.3146e-07
Iter #14 residual = 4.26065e-07
Iter #15 residual = 2.95705e-07
Iter #16 residual = 2.04323e-07
Iter #17 residual = 1.45177e-07
Iter #18 residual = 1.10973e-07
GPU: 18 iters: 4.63205 s: 2.54312 GB/s
GPUAMG:  Solving for pd, Initial residual = 0.000387416, Final residual = 7.49522e-08, No Iterations 18
time step continuity errors : sum local = 3.45344e-12, global = -2.1182e-24, cumulative = 1.386e-23
ExecutionTime = 562.43 s  ClockTime = 582 s

Courant Number mean: 4.49204e-05 max: 0.00971311 velocity magnitude: 0.14937
Time = 0.01

MULES: Solving for alpha1
Liquid phase volume fraction = 0.00275421  Min(alpha1) = -1.58185e-29  Max(alpha1) = 1
MULES: Solving for alpha1
Liquid phase volume fraction = 0.00275421  Min(alpha1) = -3.02367e-29  Max(alpha1) = 1
[2] Building level 0
[3] Building level 0
[1] Building level 0
[0] Building level 0
[3] Building level 1
[2] Building level 1
[0] Building level 1
Reconstruction on level 1
[1] Building level 1
[2] Building level 2
[2] Building level 3
Creating AMGLevel 
[3] Building level 2
[0] Building level 2
Reconstruction on level 2
[1] Building level 2
[2] Building level 4
[2] Building level 5
[3] Building level 3
Creating AMGLevel 
[2] Building level 6
[0] Building level 3
Reconstruction on level 3
[1] Building level 3
[2] Building level 7
[2] Building level 8
[2] Building level 9
[2] Building level 10
[2] Building level 11
[2] Building level 12
[2] Building level 13
[2] Building level 14
[3] Building level 4
Creating AMGLevel 
[0] Building level 4
Reconstruction on level 4
[1] Building level 4
[3] Building level 5
Creating AMGLevel 
[0] Building level 5
Reconstruction on level 5
[1] Building level 5
[3] Building level 6
Creating AMGLevel 
[0] Building level 6
Reconstruction on level 6
[1] Building level 6
[3] Building level 7
Creating AMGLevel 
[0] Building level 7
Reconstruction on level 7
[1] Building level 7
[3] Building level 8
Creating AMGLevel 
[0] Building level 8
Reconstruction on level 8
[3] Building level 9
[1] Building level 8
[3] Building level 10
Creating AMGLevel 
[0] Building level 9
Reconstruction on level 9
[3] Building level 11
[3] Building level 12
[3] Building level 13
[3] Building level 14
Creating AMGLevel 
[1] Building level 9
[0] Building level 10
Reconstruction on level 10
Creating AMGLevel 
[0] Building level 11
Reconstruction on level 11
Creating AMGLevel 
[0] Building level 12
Reconstruction on level 12
[1] Building level 10
Creating AMGLevel 
[0] Building level 13
Reconstruction on level 13
Creating AMGLevel 
[0] Building level 14
Reconstruction on level 14
[1] Building level 11
Creating AMGLevel 
14 Level construction complete
[1] Building level 12
[1] Building level 13
[1] Building level 14
initial dot_x = 113769
Iter #1 residual = 0.00144032
Iter #2 residual = 0.000757483
Iter #3 residual = 0.000430234
Iter #4 residual = 0.000258122
Iter #5 residual = 0.000157469
GPU: 5 iters: 1.41636 s: 2.31029 GB/s
GPUAMG:  Solving for pd, Initial residual = 0.00258334, Final residual = 9.86722e-05, No Iterations 5
[0] Building level 0
[3] Building level 0
[1] Building level 0
[2] Building level 0
[0] Building level 1
[3] Building level 1
[1] Building level 1
[2] Building level 1
[0] Building level 2
[2] Building level 2
[1] Building level 2
[3] Building level 2
[2] Building level 3
[0] Building level 3
[1] Building level 3
[3] Building level 3
[1] Building level 4
[2] Building level 4
[0] Building level 4
[3] Building level 4
[1] Building level 5
[0] Building level 5
[2] Building level 5
[3] Building level 5
[1] Building level 6
[0] Building level 6
[2] Building level 6
[3] Building level 6
[1] Building level 7
[0] Building level 7
[2] Building level 7
[1] Building level 8
[3] Building level 7
[0] Building level 8
[2] Building level 8
[1] Building level 9
[0] Building level 9
[1] Building level 10
[2] Building level 9
[1] Building level 11
[0] Building level 10
[1] Building level 12
[1] Building level 13
[1] Building level 14
[3] Building level 8
[0] Building level 11
[2] Building level 10
[0] Building level 12
[0] Building level 13
[0] Building level 14
14 Level construction complete
[2] Building level 11
[2] Building level 12
[2] Building level 13
[2] Building level 14
[3] Building level 9
[3] Building level 10
[3] Building level 11
[3] Building level 12
[3] Building level 13
[3] Building level 14
initial dot_x = 119263
Iter #1 residual = 0.00124331
Iter #2 residual = 0.000635573
Iter #3 residual = 0.000358784
Iter #4 residual = 0.000211862
Iter #5 residual = 0.000128519
Iter #6 residual = 7.99338e-05
GPU: 6 iters: 1.66432 s: 2.35929 GB/s
GPUAMG:  Solving for pd, Initial residual = 0.00100901, Final residual = 4.90964e-05, No Iterations 6
[2] Building level 0
[3] Building level 0
[0] Building level 0
[1] Building level 0
[0] Building level 1
[3] Building level 1
[2] Building level 1
[1] Building level 1
[2] Building level 2
[0] Building level 2
[1] Building level 2
[3] Building level 2
[0] Building level 3
[2] Building level 3
[1] Building level 3
[3] Building level 3
[0] Building level 4
[2] Building level 4
[1] Building level 4
[3] Building level 4
[0] Building level 5
[2] Building level 5
[1] Building level 5
[3] Building level 5
[0] Building level 6
[2] Building level 6
[1] Building level 6
[3] Building level 6
[0] Building level 7
[2] Building level 7
[3] Building level 7
[1] Building level 7
[0] Building level 8
[2] Building level 8
[0] Building level 9
[3] Building level 8
[1] Building level 8
[0] Building level 10
[0] Building level 11
[2] Building level 9
[0] Building level 12
[0] Building level 13
[0] Building level 14
14 Level construction complete
[1] Building level 9
[3] Building level 9
[2] Building level 10
[2] Building level 11
[1] Building level 10
[2] Building level 12
[3] Building level 10
[2] Building level 13
[2] Building level 14
[1] Building level 11
[3] Building level 11
[1] Building level 12
[3] Building level 12
[1] Building level 13
[3] Building level 13
[1] Building level 14
[3] Building level 14
initial dot_x = 114569
Iter #1 residual = 0.000159577
Iter #2 residual = 9.20289e-05
Iter #3 residual = 5.45707e-05
Iter #4 residual = 3.3838e-05
Iter #5 residual = 2.10375e-05
Iter #6 residual = 1.32495e-05
Iter #7 residual = 8.4013e-06
Iter #8 residual = 5.34039e-06
Iter #9 residual = 3.43972e-06
Iter #10 residual = 2.30418e-06
Iter #11 residual = 1.59073e-06
Iter #12 residual = 1.13051e-06
Iter #13 residual = 8.13625e-07
Iter #14 residual = 5.92681e-07
Iter #15 residual = 4.32413e-07
Iter #16 residual = 3.17893e-07
Iter #17 residual = 2.35441e-07
Iter #18 residual = 1.70847e-07
Iter #19 residual = 1.27396e-07
Iter #20 residual = 1.01931e-07
GPU: 20 iters: 4.95831 s: 2.63976 GB/s
GPUAMG:  Solving for pd, Initial residual = 0.000338192, Final residual = 7.03706e-08, No Iterations 20
time step continuity errors : sum local = 3.22818e-12, global = 5.99892e-24, cumulative = 1.9859e-23
ExecutionTime = 620.32 s  ClockTime = 641 s

End

Finalising parallel run
