 Data for JOB [59126,1] offset 0

 ========================   JOB MAP   ========================

 Data for node: ivb106	Num slots: 4	Max slots: 0	Num procs: 4
 	Process OMPI jobid: [59126,1] App: 0 Process rank: 0
 	Process OMPI jobid: [59126,1] App: 0 Process rank: 1
 	Process OMPI jobid: [59126,1] App: 0 Process rank: 2
 	Process OMPI jobid: [59126,1] App: 0 Process rank: 3

 =============================================================
[ivb106:28004] MCW rank 2 bound to socket 0[core 2[hwt 0]]: [././B/././././././.][./././././././././.]
[ivb106:28004] MCW rank 3 bound to socket 0[core 3[hwt 0]]: [./././B/./././././.][./././././././././.]
[ivb106:28004] MCW rank 0 bound to socket 0[core 0[hwt 0]]: [B/././././././././.][./././././././././.]
[ivb106:28004] MCW rank 1 bound to socket 0[core 1[hwt 0]]: [./B/./././././././.][./././././././././.]
/*---------------------------------------------------------------------------*\
| =========                 |                                                 |
| \\      /  F ield         | foam-extend: Open Source CFD                    |
|  \\    /   O peration     | Version:     3.1                                |
|   \\  /    A nd           | Web:         http://www.extend-project.de       |
|    \\/     M anipulation  |                                                 |
\*---------------------------------------------------------------------------*/
Build    : 3.1-e2da948002a2
Exec     : interFoam -parallel
Date     : May 21 2016
Time     : 09:41:08
Host     : ivb106
PID      : 28037
CtrlDict : /home-2/vplatonov/foam/foam-extend-3.1/etc/controlDict
Case     : /home/vplatonov/tests/rt12mln
nProcs   : 4
Slaves : 
3
(
ivb106.28044
ivb106.28038
ivb106.28047
)

Pstream initialized with:
    floatTransfer     : 0
    nProcsSimpleSum   : 0
    commsType         : blocking
SigFpe   : Enabling floating point exception trapping (FOAM_SIGFPE).

// * * * * * * * * * * * * * * * * * * * * * * * * * * * * * * * * * * * * * //
Create time

Create mesh for time = 0


Reading g
Reading field pd

Reading field alpha1

Reading field U

Reading/calculating face flux field phi

Reading transportProperties

Selecting incompressible transport model Newtonian
Selecting incompressible transport model Newtonian
Calculating field g.h

Selecting turbulence model type laminar
time step continuity errors : sum local = 0, global = 0, cumulative = 0
Created persistent data with name pcorr
GPUAMG:  Solving for pcorr, Initial residual = 0, Final residual = 0, No Iterations 0
time step continuity errors : sum local = 0, global = 0, cumulative = 0
Courant Number mean: 0 max: 0 velocity magnitude: 0

Starting time loop

Courant Number mean: 0 max: 0 velocity magnitude: 0
Time = 0.001

MULES: Solving for alpha1
Liquid phase volume fraction = 0.00275421  Min(alpha1) = 0  Max(alpha1) = 1
MULES: Solving for alpha1
Liquid phase volume fraction = 0.00275421  Min(alpha1) = 0  Max(alpha1) = 1
Created persistent data with name pd
[1] Building level 0
[2] Building level 0
[3] Building level 0
[0] Building level 0
Creating AMGLevel 
[1] Building level 1
[2] Building level 1
[3] Building level 1
[0] Building level 1
[2] Building level 2
[1] Building level 2
[3] Building level 2
Creating AMGLevel 
[0] Building level 2
[1] Building level 3
[2] Building level 3
[3] Building level 3
Creating AMGLevel 
[0] Building level 3
[2] Building level 4
[1] Building level 4
[3] Building level 4
Creating AMGLevel 
[0] Building level 4
[2] Building level 5
[1] Building level 5
[3] Building level 5
[2] Building level 6
[1] Building level 6
Creating AMGLevel 
[0] Building level 5
[2] Building level 7
[3] Building level 6
[1] Building level 7
[2] Building level 8
[1] Building level 8
[2] Building level 9
[1] Building level 9
[2] Building level 10
[3] Building level 7
[1] Building level 10
Creating AMGLevel 
[2] Building level 11
[0] Building level 6
[2] Building level 12
[1] Building level 11
[2] Building level 13
[2] Building level 14
[1] Building level 12
[1] Building level 13
[1] Building level 14
[3] Building level 8
[3] Building level 9
[3] Building level 10
[3] Building level 11
[3] Building level 12
Creating AMGLevel 
[0] Building level 7
[3] Building level 13
[3] Building level 14
Creating AMGLevel 
[0] Building level 8
Creating AMGLevel 
[0] Building level 9
Creating AMGLevel 
[0] Building level 10
Creating AMGLevel 
[0] Building level 11
Creating AMGLevel 
[0] Building level 12
Creating AMGLevel 
[0] Building level 13
Creating AMGLevel 
[0] Building level 14
Creating AMGLevel 
14 Level construction complete
initial dot_x = 0
Iter #1 residual = 0.0732924
GPU: 1 iters: 0.560889 s: 1.16679 GB/s
GPUAMG:  Solving for pd, Initial residual = 1, Final residual = 0.0271101, No Iterations 1
[2] Building level 0
[1] Building level 0
[3] Building level 0
[0] Building level 0
[3] Building level 1
[2] Building level 1
[1] Building level 1
[0] Building level 1
[2] Building level 2
[0] Building level 2
[3] Building level 2
[1] Building level 2
[2] Building level 3
[0] Building level 3
[3] Building level 3
[1] Building level 3
[2] Building level 4
[0] Building level 4
[1] Building level 4
[3] Building level 4
[2] Building level 5
[0] Building level 5
[1] Building level 5
[3] Building level 5
[2] Building level 6
[0] Building level 6
[1] Building level 6
[2] Building level 7
[3] Building level 6
[0] Building level 7
[2] Building level 8
[1] Building level 7
[2] Building level 9
[0] Building level 8
[2] Building level 10
[2] Building level 11
[2] Building level 12
[1] Building level 8
[2] Building level 13
[2] Building level 14
[0] Building level 9
[3] Building level 7
[0] Building level 10
[1] Building level 9
[0] Building level 11
[0] Building level 12
[0] Building level 13
[0] Building level 14
14 Level construction complete
[1] Building level 10
[1] Building level 11
[1] Building level 12
[1] Building level 13
[1] Building level 14
[3] Building level 8
[3] Building level 9
[3] Building level 10
[3] Building level 11
[3] Building level 12
[3] Building level 13
[3] Building level 14
initial dot_x = 75600.9
Iter #1 residual = 0.00835597
Iter #2 residual = 0.00430122
Iter #3 residual = 0.00229663
Iter #4 residual = 0.00122787
GPU: 4 iters: 1.40271 s: 1.86621 GB/s
GPUAMG:  Solving for pd, Initial residual = 0.0195019, Final residual = 0.000642985, No Iterations 4
[1] Building level 0
[2] Building level 0
[3] Building level 0
[0] Building level 0
[3] Building level 1
[2] Building level 1
[1] Building level 1
[0] Building level 1
[2] Building level 2
[0] Building level 2
[3] Building level 2
[1] Building level 2
[2] Building level 3
[0] Building level 3
[3] Building level 3
[1] Building level 3
[2] Building level 4
[1] Building level 4
[0] Building level 4
[3] Building level 4
[2] Building level 5
[1] Building level 5
[0] Building level 5
[3] Building level 5
[2] Building level 6
[1] Building level 6
[0] Building level 6
[2] Building level 7
[3] Building level 6
[2] Building level 8
[1] Building level 7
[2] Building level 9
[0] Building level 7
[2] Building level 10
[2] Building level 11
[2] Building level 12
[2] Building level 13
[1] Building level 8
[2] Building level 14
[3] Building level 7
[1] Building level 9
[0] Building level 8
[1] Building level 10
[1] Building level 11
[1] Building level 12
[1] Building level 13
[0] Building level 9
[1] Building level 14
[3] Building level 8
[0] Building level 10
[0] Building level 11
[0] Building level 12
[0] Building level 13
[0] Building level 14
14 Level construction complete
[3] Building level 9
[3] Building level 10
[3] Building level 11
[3] Building level 12
[3] Building level 13
[3] Building level 14
initial dot_x = 128354
Iter #1 residual = 0.00249733
Iter #2 residual = 0.00114295
Iter #3 residual = 0.000554319
Iter #4 residual = 0.000276808
Iter #5 residual = 0.000144387
Iter #6 residual = 8.169e-05
Iter #7 residual = 5.04109e-05
Iter #8 residual = 3.09354e-05
Iter #9 residual = 1.9794e-05
Iter #10 residual = 1.27121e-05
Iter #11 residual = 8.34225e-06
Iter #12 residual = 5.48526e-06
Iter #13 residual = 3.62687e-06
Iter #14 residual = 2.45281e-06
Iter #15 residual = 1.71818e-06
Iter #16 residual = 1.26772e-06
Iter #17 residual = 9.1235e-07
Iter #18 residual = 7.01537e-07
Iter #19 residual = 5.33296e-07
Iter #20 residual = 4.34986e-07
Iter #21 residual = 3.37752e-07
Iter #22 residual = 2.878e-07
Iter #23 residual = 2.19494e-07
Iter #24 residual = 2.05744e-07
Iter #25 residual = 1.41889e-07
Iter #26 residual = 1.50727e-07
GPU: 26 iters: 7.52927 s: 2.2599 GB/s
GPUAMG:  Solving for pd, Initial residual = 0.00621937, Final residual = 8.91027e-08, No Iterations 26
time step continuity errors : sum local = 6.61937e-12, global = 1.08395e-24, cumulative = 1.08395e-24
ExecutionTime = 91.21 s  ClockTime = 104 s

Courant Number mean: 4.87589e-06 max: 0.00216224 velocity magnitude: 0.033785
Time = 0.002

MULES: Solving for alpha1
Liquid phase volume fraction = 0.00275421  Min(alpha1) = 0  Max(alpha1) = 1
MULES: Solving for alpha1
Liquid phase volume fraction = 0.00275421  Min(alpha1) = 0  Max(alpha1) = 1
[0] Building level 0
[2] Building level 0
[3] Building level 0
[1] Building level 0
[3] Building level 1
[2] Building level 1
[1] Building level 1
[0] Building level 1
Reconstruction on level 1
[2] Building level 2
[1] Building level 2
[3] Building level 2
Creating AMGLevel 
[0] Building level 2
Reconstruction on level 2
[1] Building level 3
[2] Building level 3
[3] Building level 3
Creating AMGLevel 
[0] Building level 3
Reconstruction on level 3
[1] Building level 4
[2] Building level 4
[3] Building level 4
Creating AMGLevel 
[0] Building level 4
Reconstruction on level 4
[1] Building level 5
[2] Building level 5
[3] Building level 5
Creating AMGLevel 
[0] Building level 5
Reconstruction on level 5
[1] Building level 6
[2] Building level 6
[1] Building level 7
[1] Building level 8
[3] Building level 6
[2] Building level 7
Creating AMGLevel 
[0] Building level 6
Reconstruction on level 6
[1] Building level 9
[1] Building level 10
[1] Building level 11
[1] Building level 12
[1] Building level 13
[2] Building level 8
[1] Building level 14
[2] Building level 9
[3] Building level 7
[2] Building level 10
Creating AMGLevel 
[2] Building level 11
[0] Building level 7
Reconstruction on level 7
[2] Building level 12
[2] Building level 13
[2] Building level 14
[3] Building level 8
[3] Building level 9
Creating AMGLevel 
[0] Building level 8
Reconstruction on level 8
[3] Building level 10
[3] Building level 11
[3] Building level 12
Creating AMGLevel 
[0] Building level 9
Reconstruction on level 9
[3] Building level 13
[3] Building level 14
Creating AMGLevel 
[0] Building level 10
Reconstruction on level 10
Creating AMGLevel 
[0] Building level 11
Reconstruction on level 11
Creating AMGLevel 
[0] Building level 12
Reconstruction on level 12
Creating AMGLevel 
[0] Building level 13
Reconstruction on level 13
Creating AMGLevel 
[0] Building level 14
Reconstruction on level 14
Creating AMGLevel 
14 Level construction complete
initial dot_x = 114302
Iter #1 residual = 0.000826949
Iter #2 residual = 0.00042997
Iter #3 residual = 0.000242385
GPU: 3 iters: 1.13161 s: 1.73498 GB/s
GPUAMG:  Solving for pd, Initial residual = 0.00335958, Final residual = 0.000140982, No Iterations 3
[0] Building level 0
[2] Building level 0
[1] Building level 0
[3] Building level 0
[2] Building level 1
[1] Building level 1
[3] Building level 1
[0] Building level 1
[2] Building level 2
[1] Building level 2
[3] Building level 2
[0] Building level 2
[2] Building level 3
[1] Building level 3
[3] Building level 3
[0] Building level 3
[1] Building level 4
[2] Building level 4
[0] Building level 4
[3] Building level 4
[1] Building level 5
[2] Building level 5
[0] Building level 5
[1] Building level 6
[3] Building level 5
[2] Building level 6
[1] Building level 7
[0] Building level 6
[1] Building level 8
[1] Building level 9
[2] Building level 7
[1] Building level 10
[1] Building level 11
[1] Building level 12
[1] Building level 13
[1] Building level 14
[3] Building level 6
[0] Building level 7
[2] Building level 8
[0] Building level 8
[2] Building level 9
[2] Building level 10
[2] Building level 11
[0] Building level 9
[2] Building level 12
[2] Building level 13
[2] Building level 14
[0] Building level 10
[3] Building level 7
[0] Building level 11
[0] Building level 12
[0] Building level 13
[0] Building level 14
14 Level construction complete
[3] Building level 8
[3] Building level 9
[3] Building level 10
[3] Building level 11
[3] Building level 12
[3] Building level 13
[3] Building level 14
initial dot_x = 116959
Iter #1 residual = 0.000569876
Iter #2 residual = 0.000274329
Iter #3 residual = 0.000137431
GPU: 3 iters: 1.13819 s: 1.72495 GB/s
GPUAMG:  Solving for pd, Initial residual = 0.00212988, Final residual = 7.42659e-05, No Iterations 3
[1] Building level 0
[3] Building level 0
[0] Building level 0
[2] Building level 0
[2] Building level 1
[1] Building level 1
[3] Building level 1
[0] Building level 1
[2] Building level 2
[1] Building level 2
[3] Building level 2
[0] Building level 2
[2] Building level 3
[1] Building level 3
[3] Building level 3
[0] Building level 3
[1] Building level 4
[2] Building level 4
[0] Building level 4
[3] Building level 4
[1] Building level 5
[2] Building level 5
[0] Building level 5
[1] Building level 6
[3] Building level 5
[2] Building level 6
[1] Building level 7
[0] Building level 6
[1] Building level 8
[1] Building level 9
[2] Building level 7
[1] Building level 10
[3] Building level 6
[1] Building level 11
[0] Building level 7
[1] Building level 12
[1] Building level 13
[1] Building level 14
[2] Building level 8
[0] Building level 8
[2] Building level 9
[2] Building level 10
[0] Building level 9
[2] Building level 11
[2] Building level 12
[2] Building level 13
[3] Building level 7
[2] Building level 14
[0] Building level 10
[0] Building level 11
[0] Building level 12
[0] Building level 13
[0] Building level 14
14 Level construction complete
[3] Building level 8
[3] Building level 9
[3] Building level 10
[3] Building level 11
[3] Building level 12
[3] Building level 13
[3] Building level 14
initial dot_x = 114811
Iter #1 residual = 0.000858703
Iter #2 residual = 0.000544398
Iter #3 residual = 0.000302119
Iter #4 residual = 0.000181911
Iter #5 residual = 0.000104507
Iter #6 residual = 7.87538e-05
Iter #7 residual = 6.4046e-05
Iter #8 residual = 5.08341e-05
Iter #9 residual = 3.88008e-05
Iter #10 residual = 2.7786e-05
Iter #11 residual = 1.89777e-05
Iter #12 residual = 1.19423e-05
Iter #13 residual = 8.28275e-06
Iter #14 residual = 5.837e-06
Iter #15 residual = 4.09909e-06
Iter #16 residual = 3.12297e-06
Iter #17 residual = 2.20627e-06
Iter #18 residual = 1.99033e-06
Iter #19 residual = 1.44232e-06
Iter #20 residual = 1.23563e-06
Iter #21 residual = 6.89831e-07
Iter #22 residual = 4.56083e-07
Iter #23 residual = 3.23597e-07
Iter #24 residual = 2.1433e-07
Iter #25 residual = 1.3998e-07
GPU: 25 iters: 7.37702 s: 2.21782 GB/s
GPUAMG:  Solving for pd, Initial residual = 0.00193604, Final residual = 9.54982e-08, No Iterations 25
time step continuity errors : sum local = 4.79883e-12, global = 2.4903e-24, cumulative = 3.57425e-24
ExecutionTime = 150.13 s  ClockTime = 165 s

Courant Number mean: 7.6766e-06 max: 0.00313308 velocity magnitude: 0.0489543
Time = 0.003

MULES: Solving for alpha1
Liquid phase volume fraction = 0.00275421  Min(alpha1) = -6.44105e-31  Max(alpha1) = 1
MULES: Solving for alpha1
Liquid phase volume fraction = 0.00275421  Min(alpha1) = -2.88362e-30  Max(alpha1) = 1
[1] Building level 0
[3] Building level 0
[2] Building level 0
[0] Building level 0
[1] Building level 1
[2] Building level 1
[3] Building level 1
[0] Building level 1
[2] Building level 2
[1] Building level 2
[0] Building level 2
Reconstruction on level 2
[1] Building level 3
[2] Building level 3
Creating AMGLevel 
[0] Building level 3
Reconstruction on level 3
[3] Building level 2
[1] Building level 4
Creating AMGLevel 
[0] Building level 4
Reconstruction on level 4
[2] Building level 4
[1] Building level 5
Creating AMGLevel 
[2] Building level 5
[0] Building level 5
Reconstruction on level 5
[1] Building level 6
[3] Building level 3
[1] Building level 7
[2] Building level 6
Creating AMGLevel 
[0] Building level 6
Reconstruction on level 6
[1] Building level 8
[1] Building level 9
[1] Building level 10
[2] Building level 7
[1] Building level 11
[1] Building level 12
[1] Building level 13
[1] Building level 14
Creating AMGLevel 
[0] Building level 7
Reconstruction on level 7
[2] Building level 8
[2] Building level 9
Creating AMGLevel 
[0] Building level 8
Reconstruction on level 8
[2] Building level 10
[2] Building level 11
[2] Building level 12
[2] Building level 13
[2] Building level 14
Creating AMGLevel 
[0] Building level 9
Reconstruction on level 9
Creating AMGLevel 
[0] Building level 10
Reconstruction on level 10
Creating AMGLevel 
[0] Building level 11
Reconstruction on level 11
Creating AMGLevel 
[0] Building level 12
Reconstruction on level 12
Creating AMGLevel 
[0] Building level 13
Reconstruction on level 13
Creating AMGLevel 
[0] Building level 14
Reconstruction on level 14
Creating AMGLevel 
14 Level construction complete
[3] Building level 4
[3] Building level 5
[3] Building level 6
[3] Building level 7
[3] Building level 8
[3] Building level 9
[3] Building level 10
[3] Building level 11
[3] Building level 12
[3] Building level 13
[3] Building level 14
initial dot_x = 113232
Iter #1 residual = 0.00212895
Iter #2 residual = 0.00120738
Iter #3 residual = 0.000680934
Iter #4 residual = 0.00041117
Iter #5 residual = 0.000248392
GPU: 5 iters: 1.72471 s: 1.89724 GB/s
GPUAMG:  Solving for pd, Initial residual = 0.00424392, Final residual = 0.000155348, No Iterations 5
[0] Building level 0
[3] Building level 0
[1] Building level 0
[2] Building level 0
[3] Building level 1
[2] Building level 1
[1] Building level 1
[0] Building level 1
[2] Building level 2
[3] Building level 2
[1] Building level 2
[0] Building level 2
[2] Building level 3
[3] Building level 3
[1] Building level 3
[0] Building level 3
[2] Building level 4
[1] Building level 4
[3] Building level 4
[0] Building level 4
[1] Building level 5
[2] Building level 5
[3] Building level 5
[0] Building level 5
[1] Building level 6
[2] Building level 6
[1] Building level 7
[3] Building level 6
[0] Building level 6
[2] Building level 7
[1] Building level 8
[1] Building level 9
[2] Building level 8
[1] Building level 10
[1] Building level 11
[1] Building level 12
[1] Building level 13
[1] Building level 14
[2] Building level 9
[3] Building level 7
[0] Building level 7
[2] Building level 10
[2] Building level 11
[2] Building level 12
[2] Building level 13
[2] Building level 14
[3] Building level 8
[0] Building level 8
[3] Building level 9
[0] Building level 9
[3] Building level 10
[3] Building level 11
[0] Building level 10
[3] Building level 12
[3] Building level 13
[3] Building level 14
[0] Building level 11
[0] Building level 12
[0] Building level 13
[0] Building level 14
14 Level construction complete
initial dot_x = 117623
Iter #1 residual = 0.00132921
Iter #2 residual = 0.000689572
Iter #3 residual = 0.000383265
Iter #4 residual = 0.000224692
GPU: 4 iters: 1.42331 s: 1.8392 GB/s
GPUAMG:  Solving for pd, Initial residual = 0.0030413, Final residual = 0.000136126, No Iterations 4
[2] Building level 0
[3] Building level 0
[1] Building level 0
[0] Building level 0
[2] Building level 1
[1] Building level 1
[3] Building level 1
[0] Building level 1
[2] Building level 2
[3] Building level 2
[1] Building level 2
[0] Building level 2
[2] Building level 3
[3] Building level 3
[1] Building level 3
[0] Building level 3
[2] Building level 4
[1] Building level 4
[0] Building level 4
[3] Building level 4
[1] Building level 5
[2] Building level 5
[0] Building level 5
[3] Building level 5
[1] Building level 6
[2] Building level 6
[0] Building level 6
[1] Building level 7
[3] Building level 6
[2] Building level 7
[1] Building level 8
[1] Building level 9
[2] Building level 8
[1] Building level 10
[1] Building level 11
[0] Building level 7
[1] Building level 12
[1] Building level 13
[1] Building level 14
[2] Building level 9
[2] Building level 10
[3] Building level 7
[2] Building level 11
[2] Building level 12
[2] Building level 13
[2] Building level 14
[0] Building level 8
[0] Building level 9
[3] Building level 8
[0] Building level 10
[0] Building level 11
[0] Building level 12
[3] Building level 9
[0] Building level 13
[0] Building level 14
14 Level construction complete
[3] Building level 10
[3] Building level 11
[3] Building level 12
[3] Building level 13
[3] Building level 14
initial dot_x = 112704
Iter #1 residual = 0.000456909
Iter #2 residual = 0.000172958
Iter #3 residual = 7.66847e-05
Iter #4 residual = 3.7462e-05
Iter #5 residual = 2.0458e-05
Iter #6 residual = 1.16471e-05
Iter #7 residual = 7.2686e-06
Iter #8 residual = 3.7319e-06
Iter #9 residual = 2.18123e-06
Iter #10 residual = 1.40589e-06
Iter #11 residual = 9.17993e-07
Iter #12 residual = 8.19456e-07
Iter #13 residual = 5.78539e-07
Iter #14 residual = 3.02477e-07
Iter #15 residual = 3.3879e-07
Iter #16 residual = 2.06863e-07
Iter #17 residual = 4.72817e-07
Iter #18 residual = 2.23249e-07
Iter #19 residual = 3.0365e-07
Iter #20 residual = 2.40864e-07
Iter #21 residual = 1.48599e-07
Iter #22 residual = 1.3548e-07
Iter #23 residual = 1.04783e-07
Iter #24 residual = 2.17603e-07
Iter #25 residual = 1.165e-07
Iter #26 residual = 1.43653e-07
GPU: 26 iters: 7.80266 s: 2.18072 GB/s
GPUAMG:  Solving for pd, Initial residual = 0.00262857, Final residual = 6.763e-08, No Iterations 26
time step continuity errors : sum local = 3.59791e-12, global = -3.99928e-24, cumulative = -4.25033e-25
ExecutionTime = 209.19 s  ClockTime = 226 s

Courant Number mean: 1.3576e-05 max: 0.00482757 velocity magnitude: 0.0754308
Time = 0.004

MULES: Solving for alpha1
Liquid phase volume fraction = 0.00275421  Min(alpha1) = -2.73883e-29  Max(alpha1) = 1
MULES: Solving for alpha1
Liquid phase volume fraction = 0.00275421  Min(alpha1) = -4.85799e-33  Max(alpha1) = 1
[2] Building level 0
[1] Building level 0
[3] Building level 0
[0] Building level 0
[3] Building level 1
[2] Building level 1
[0] Building level 1
Reconstruction on level 1
[1] Building level 1
[1] Building level 2
[1] Building level 3
[2] Building level 2
[3] Building level 2
Creating AMGLevel 
[0] Building level 2
Reconstruction on level 2
[1] Building level 4
[1] Building level 5
[1] Building level 6
[2] Building level 3
[3] Building level 3
Creating AMGLevel 
[0] Building level 3
Reconstruction on level 3
[1] Building level 7
[1] Building level 8
[1] Building level 9
[1] Building level 10
[1] Building level 11
[1] Building level 12
[1] Building level 13
[1] Building level 14
[2] Building level 4
[3] Building level 4
Creating AMGLevel 
[0] Building level 4
Reconstruction on level 4
[2] Building level 5
[3] Building level 5
Creating AMGLevel 
[0] Building level 5
Reconstruction on level 5
[2] Building level 6
[3] Building level 6
[2] Building level 7
[2] Building level 8
Creating AMGLevel 
[0] Building level 6
Reconstruction on level 6
[2] Building level 9
[3] Building level 7
[2] Building level 10
[2] Building level 11
[2] Building level 12
[2] Building level 13
[2] Building level 14
[3] Building level 8
Creating AMGLevel 
[0] Building level 7
Reconstruction on level 7
[3] Building level 9
[3] Building level 10
[3] Building level 11
[3] Building level 12
[3] Building level 13
[3] Building level 14
Creating AMGLevel 
[0] Building level 8
Reconstruction on level 8
Creating AMGLevel 
[0] Building level 9
Reconstruction on level 9
Creating AMGLevel 
[0] Building level 10
Reconstruction on level 10
Creating AMGLevel 
[0] Building level 11
Reconstruction on level 11
Creating AMGLevel 
[0] Building level 12
Reconstruction on level 12
Creating AMGLevel 
[0] Building level 13
Reconstruction on level 13
Creating AMGLevel 
[0] Building level 14
Reconstruction on level 14
Creating AMGLevel 
14 Level construction complete
initial dot_x = 114050
Iter #1 residual = 0.00135358
Iter #2 residual = 0.000770734
Iter #3 residual = 0.000415411
Iter #4 residual = 0.000244075
GPU: 4 iters: 1.38033 s: 1.89646 GB/s
GPUAMG:  Solving for pd, Initial residual = 0.00342651, Final residual = 0.00014486, No Iterations 4
[2] Building level 0
[3] Building level 0
[1] Building level 0
[0] Building level 0
[3] Building level 1
[2] Building level 1
[0] Building level 1
[1] Building level 1
[2] Building level 2
[0] Building level 2
[3] Building level 2
[1] Building level 2
[2] Building level 3
[0] Building level 3
[3] Building level 3
[1] Building level 3
[3] Building level 4
[2] Building level 4
[0] Building level 4
[1] Building level 4
[3] Building level 5
[0] Building level 5
[2] Building level 5
[1] Building level 5
[3] Building level 6
[0] Building level 6
[2] Building level 6
[1] Building level 6
[3] Building level 7
[0] Building level 7
[3] Building level 8
[2] Building level 7
[1] Building level 7
[3] Building level 9
[3] Building level 10
[3] Building level 11
[0] Building level 8
[3] Building level 12
[3] Building level 13
[3] Building level 14
[2] Building level 8
[1] Building level 8
[0] Building level 9
[2] Building level 9
[0] Building level 10
[0] Building level 11
[0] Building level 12
[1] Building level 9
[0] Building level 13
[2] Building level 10
[0] Building level 14
14 Level construction complete
[2] Building level 11
[1] Building level 10
[2] Building level 12
[2] Building level 13
[2] Building level 14
[1] Building level 11
[1] Building level 12
[1] Building level 13
[1] Building level 14
initial dot_x = 121103
Iter #1 residual = 0.00202131
Iter #2 residual = 0.00115584
Iter #3 residual = 0.000623312
Iter #4 residual = 0.000361968
Iter #5 residual = 0.000214208
GPU: 5 iters: 1.64853 s: 1.98492 GB/s
GPUAMG:  Solving for pd, Initial residual = 0.00322673, Final residual = 0.000130701, No Iterations 5
[2] Building level 0
[3] Building level 0
[0] Building level 0
[1] Building level 0
[2] Building level 1
[3] Building level 1
[0] Building level 1
[1] Building level 1
[2] Building level 2
[0] Building level 2
[1] Building level 2
[3] Building level 2
[2] Building level 3
[0] Building level 3
[1] Building level 3
[3] Building level 3
[0] Building level 4
[1] Building level 4
[3] Building level 4
[2] Building level 4
[1] Building level 5
[0] Building level 5
[3] Building level 5
[2] Building level 5
[1] Building level 6
[0] Building level 6
[3] Building level 6
[2] Building level 6
[1] Building level 7
[0] Building level 7
[3] Building level 7
[2] Building level 7
[1] Building level 8
[0] Building level 8
[1] Building level 9
[3] Building level 8
[1] Building level 10
[0] Building level 9
[1] Building level 11
[2] Building level 8
[1] Building level 12
[1] Building level 13
[1] Building level 14
[0] Building level 10
[3] Building level 9
[0] Building level 11
[0] Building level 12
[0] Building level 13
[0] Building level 14
14 Level construction complete
[3] Building level 10
[2] Building level 9
[3] Building level 11
[3] Building level 12
[3] Building level 13
[3] Building level 14
[2] Building level 10
[2] Building level 11
[2] Building level 12
[2] Building level 13
[2] Building level 14
initial dot_x = 114083
Iter #1 residual = 0.000854877
Iter #2 residual = 0.000463817
Iter #3 residual = 0.000235987
Iter #4 residual = 0.000132513
Iter #5 residual = 7.75886e-05
Iter #6 residual = 4.798e-05
Iter #7 residual = 3.03099e-05
Iter #8 residual = 1.92706e-05
Iter #9 residual = 1.34095e-05
Iter #10 residual = 8.60407e-06
Iter #11 residual = 5.90126e-06
Iter #12 residual = 4.0441e-06
Iter #13 residual = 2.87098e-06
Iter #14 residual = 2.04068e-06
Iter #15 residual = 1.48274e-06
Iter #16 residual = 1.07662e-06
Iter #17 residual = 7.94863e-07
Iter #18 residual = 5.85396e-07
Iter #19 residual = 4.37212e-07
Iter #20 residual = 3.23446e-07
Iter #21 residual = 2.46416e-07
Iter #22 residual = 1.82309e-07
Iter #23 residual = 1.43816e-07
Iter #24 residual = 1.02292e-07
Iter #25 residual = 1.03539e-07
GPU: 25 iters: 7.20155 s: 2.27186 GB/s
GPUAMG:  Solving for pd, Initial residual = 0.00242394, Final residual = 5.67905e-08, No Iterations 25
time step continuity errors : sum local = 2.66015e-12, global = 1.8014e-24, cumulative = 1.37637e-24
ExecutionTime = 268.28 s  ClockTime = 287 s

Courant Number mean: 1.92533e-05 max: 0.00598207 velocity magnitude: 0.0934698
Time = 0.005

MULES: Solving for alpha1
Liquid phase volume fraction = 0.00275421  Min(alpha1) = -1.52408e-30  Max(alpha1) = 1
MULES: Solving for alpha1
Liquid phase volume fraction = 0.00275421  Min(alpha1) = -2.49819e-30  Max(alpha1) = 1
[0] Building level 0
[3] Building level 0
[2] Building level 0
[1] Building level 0
[3] Building level 1
[2] Building level 1
[0] Building level 1
[1] Building level 1
[2] Building level 2
[0] Building level 2
Reconstruction on level 2
[1] Building level 2
[1] Building level 3
[2] Building level 3
Creating AMGLevel 
[0] Building level 3
Reconstruction on level 3
[3] Building level 2
[1] Building level 4
[2] Building level 4
Creating AMGLevel 
[0] Building level 4
Reconstruction on level 4
[1] Building level 5
[2] Building level 5
Creating AMGLevel 
[0] Building level 5
Reconstruction on level 5
[1] Building level 6
[3] Building level 3
[2] Building level 6
[1] Building level 7
Creating AMGLevel 
[0] Building level 6
Reconstruction on level 6
[2] Building level 7
[1] Building level 8
[2] Building level 8
[1] Building level 9
[1] Building level 10
[2] Building level 9
[1] Building level 11
[1] Building level 12
[1] Building level 13
[1] Building level 14
Creating AMGLevel 
[2] Building level 10
[0] Building level 7
Reconstruction on level 7
[2] Building level 11
[2] Building level 12
[2] Building level 13
[2] Building level 14
Creating AMGLevel 
[0] Building level 8
Reconstruction on level 8
Creating AMGLevel 
[0] Building level 9
Reconstruction on level 9
Creating AMGLevel 
[0] Building level 10
Reconstruction on level 10
Creating AMGLevel 
[0] Building level 11
Reconstruction on level 11
Creating AMGLevel 
[0] Building level 12
Reconstruction on level 12
Creating AMGLevel 
[0] Building level 13
Reconstruction on level 13
Creating AMGLevel 
[0] Building level 14
Reconstruction on level 14
Creating AMGLevel 
14 Level construction complete
[3] Building level 4
[3] Building level 5
[3] Building level 6
[3] Building level 7
[3] Building level 8
[3] Building level 9
[3] Building level 10
[3] Building level 11
[3] Building level 12
[3] Building level 13
[3] Building level 14
initial dot_x = 114654
Iter #1 residual = 0.00120695
Iter #2 residual = 0.000656828
Iter #3 residual = 0.000381294
Iter #4 residual = 0.000231917
Iter #5 residual = 0.000143445
GPU: 5 iters: 1.60806 s: 2.03486 GB/s
GPUAMG:  Solving for pd, Initial residual = 0.00216327, Final residual = 9.08106e-05, No Iterations 5
[3] Building level 0
[1] Building level 0
[2] Building level 0
[0] Building level 0
[2] Building level 1
[3] Building level 1
[0] Building level 1
[1] Building level 1
[2] Building level 2
[0] Building level 2
[3] Building level 2
[1] Building level 2
[2] Building level 3
[0] Building level 3
[3] Building level 3
[1] Building level 3
[1] Building level 4
[2] Building level 4
[0] Building level 4
[3] Building level 4
[1] Building level 5
[3] Building level 5
[2] Building level 5
[0] Building level 5
[1] Building level 6
[3] Building level 6
[2] Building level 6
[0] Building level 6
[1] Building level 7
[1] Building level 8
[1] Building level 9
[2] Building level 7
[0] Building level 7
[3] Building level 7
[1] Building level 10
[1] Building level 11
[1] Building level 12
[1] Building level 13
[1] Building level 14
[0] Building level 8
[2] Building level 8
[3] Building level 8
[0] Building level 9
[2] Building level 9
[3] Building level 9
[2] Building level 10
[0] Building level 10
[3] Building level 10
[2] Building level 11
[0] Building level 11
[3] Building level 11
[2] Building level 12
[3] Building level 12
[2] Building level 13
[0] Building level 12
[2] Building level 14
[3] Building level 13
[0] Building level 13
[3] Building level 14
[0] Building level 14
14 Level construction complete
initial dot_x = 118603
Iter #1 residual = 0.000989515
Iter #2 residual = 0.000524608
Iter #3 residual = 0.000298283
Iter #4 residual = 0.000178199
Iter #5 residual = 0.000110115
GPU: 5 iters: 1.62479 s: 2.01391 GB/s
GPUAMG:  Solving for pd, Initial residual = 0.00179554, Final residual = 6.92313e-05, No Iterations 5
[3] Building level 0
[2] Building level 0
[1] Building level 0
[0] Building level 0
[3] Building level 1
[2] Building level 1
[1] Building level 1
[0] Building level 1
[0] Building level 2
[2] Building level 2
[3] Building level 2
[1] Building level 2
[2] Building level 3
[0] Building level 3
[3] Building level 3
[1] Building level 3
[0] Building level 4
[1] Building level 4
[2] Building level 4
[3] Building level 4
[1] Building level 5
[0] Building level 5
[2] Building level 5
[3] Building level 5
[1] Building level 6
[0] Building level 6
[2] Building level 6
[1] Building level 7
[3] Building level 6
[0] Building level 7
[1] Building level 8
[2] Building level 7
[0] Building level 8
[1] Building level 9
[1] Building level 10
[1] Building level 11
[0] Building level 9
[1] Building level 12
[1] Building level 13
[1] Building level 14
[3] Building level 7
[0] Building level 10
[2] Building level 8
[0] Building level 11
[0] Building level 12
[0] Building level 13
[0] Building level 14
14 Level construction complete
[2] Building level 9
[3] Building level 8
[2] Building level 10
[2] Building level 11
[2] Building level 12
[2] Building level 13
[2] Building level 14
[3] Building level 9
[3] Building level 10
[3] Building level 11
[3] Building level 12
[3] Building level 13
[3] Building level 14
initial dot_x = 114916
Iter #1 residual = 0.000515661
Iter #2 residual = 0.000310041
Iter #3 residual = 0.000179216
Iter #4 residual = 0.000112502
Iter #5 residual = 7.0815e-05
Iter #6 residual = 4.68536e-05
Iter #7 residual = 3.15992e-05
Iter #8 residual = 2.10851e-05
Iter #9 residual = 1.47117e-05
Iter #10 residual = 1.05612e-05
Iter #11 residual = 7.63737e-06
Iter #12 residual = 5.15087e-06
Iter #13 residual = 3.92297e-06
Iter #14 residual = 3.41816e-06
Iter #15 residual = 2.17437e-06
Iter #16 residual = 1.71717e-06
Iter #17 residual = 1.2545e-06
Iter #18 residual = 1.39789e-06
Iter #19 residual = 7.84235e-07
Iter #20 residual = 5.68659e-07
Iter #21 residual = 4.86267e-07
Iter #22 residual = 4.30386e-07
Iter #23 residual = 5.17705e-07
Iter #24 residual = 2.88286e-07
Iter #25 residual = 4.17642e-07
Iter #26 residual = 2.00839e-07
Iter #27 residual = 2.60213e-07
Iter #28 residual = 1.55385e-07
GPU: 28 iters: 7.81909 s: 2.34353 GB/s
GPUAMG:  Solving for pd, Initial residual = 0.00145221, Final residual = 6.03003e-08, No Iterations 28
time step continuity errors : sum local = 3.20057e-12, global = -2.59762e-24, cumulative = -1.22125e-24
ExecutionTime = 327.79 s  ClockTime = 349 s

Courant Number mean: 2.43936e-05 max: 0.00684032 velocity magnitude: 0.10688
Time = 0.006

MULES: Solving for alpha1
Liquid phase volume fraction = 0.00275421  Min(alpha1) = -9.21132e-30  Max(alpha1) = 1
MULES: Solving for alpha1
Liquid phase volume fraction = 0.00275421  Min(alpha1) = -8.29456e-30  Max(alpha1) = 1
[0] Building level 0
[1] Building level 0
[3] Building level 0
[2] Building level 0
[3] Building level 1
[2] Building level 1
[0] Building level 1
[1] Building level 1
[2] Building level 2
[0] Building level 2
Reconstruction on level 2
[1] Building level 2
[1] Building level 3
[2] Building level 3
Creating AMGLevel 
[0] Building level 3
Reconstruction on level 3
[3] Building level 2
[2] Building level 4
[1] Building level 4
Creating AMGLevel 
[0] Building level 4
Reconstruction on level 4
[1] Building level 5
[2] Building level 5
Creating AMGLevel 
[0] Building level 5
Reconstruction on level 5
[3] Building level 3
[1] Building level 6
[2] Building level 6
[1] Building level 7
[2] Building level 7
Creating AMGLevel 
[0] Building level 6
Reconstruction on level 6
[1] Building level 8
[2] Building level 8
[1] Building level 9
[2] Building level 9
[1] Building level 10
[2] Building level 10
[1] Building level 11
[2] Building level 11
[1] Building level 12
[2] Building level 12
[1] Building level 13
[2] Building level 13
[1] Building level 14
[2] Building level 14
Creating AMGLevel 
[0] Building level 7
Reconstruction on level 7
Creating AMGLevel 
[0] Building level 8
Reconstruction on level 8
Creating AMGLevel 
[0] Building level 9
Reconstruction on level 9
Creating AMGLevel 
[0] Building level 10
Reconstruction on level 10
Creating AMGLevel 
[0] Building level 11
Reconstruction on level 11
Creating AMGLevel 
[0] Building level 12
Reconstruction on level 12
Creating AMGLevel 
[0] Building level 13
Reconstruction on level 13
Creating AMGLevel 
[0] Building level 14
Reconstruction on level 14
Creating AMGLevel 
14 Level construction complete
[3] Building level 4
[3] Building level 5
[3] Building level 6
[3] Building level 7
[3] Building level 8
[3] Building level 9
[3] Building level 10
[3] Building level 11
[3] Building level 12
[3] Building level 13
[3] Building level 14
initial dot_x = 113691
Iter #1 residual = 0.00145883
Iter #2 residual = 0.000811457
Iter #3 residual = 0.000479046
Iter #4 residual = 0.000298897
Iter #5 residual = 0.000184746
Iter #6 residual = 0.000147743
Iter #7 residual = 0.00012289
GPU: 7 iters: 2.28428 s: 2.00547 GB/s
GPUAMG:  Solving for pd, Initial residual = 0.00228017, Final residual = 9.36683e-05, No Iterations 7
[1] Building level 0
[3] Building level 0
[2] Building level 0
[0] Building level 0
[3] Building level 1
[1] Building level 1
[2] Building level 1
[0] Building level 1
[2] Building level 2
[0] Building level 2
[3] Building level 2
[1] Building level 2
[0] Building level 3
[2] Building level 3
[3] Building level 3
[1] Building level 3
[0] Building level 4
[3] Building level 4
[2] Building level 4
[1] Building level 4
[3] Building level 5
[0] Building level 5
[2] Building level 5
[1] Building level 5
[3] Building level 6
[0] Building level 6
[2] Building level 6
[1] Building level 6
[3] Building level 7
[0] Building level 7
[2] Building level 7
[3] Building level 8
[0] Building level 8
[3] Building level 9
[1] Building level 7
[3] Building level 10
[0] Building level 9
[3] Building level 11
[2] Building level 8
[3] Building level 12
[3] Building level 13
[0] Building level 10
[3] Building level 14
[0] Building level 11
[0] Building level 12
[0] Building level 13
[0] Building level 14
14 Level construction complete
[2] Building level 9
[1] Building level 8
[2] Building level 10
[2] Building level 11
[2] Building level 12
[2] Building level 13
[2] Building level 14
[1] Building level 9
[1] Building level 10
[1] Building level 11
[1] Building level 12
[1] Building level 13
[1] Building level 14
initial dot_x = 118575
Iter #1 residual = 0.00112636
Iter #2 residual = 0.000612192
Iter #3 residual = 0.000354617
Iter #4 residual = 0.000203555
Iter #5 residual = 0.000156395
Iter #6 residual = 0.00012546
Iter #7 residual = 0.000102155
Iter #8 residual = 8.56477e-05
Iter #9 residual = 7.3026e-05
Iter #10 residual = 6.30196e-05
GPU: 10 iters: 3.15641 s: 2.07336 GB/s
GPUAMG:  Solving for pd, Initial residual = 0.00117823, Final residual = 5.02377e-05, No Iterations 10
[0] Building level 0
[1] Building level 0
[3] Building level 0
[2] Building level 0
[3] Building level 1
[1] Building level 1
[2] Building level 1
[0] Building level 1
[0] Building level 2
[2] Building level 2
[1] Building level 2
[3] Building level 2
[0] Building level 3
[2] Building level 3
[1] Building level 3
[3] Building level 3
[1] Building level 4
[0] Building level 4
[3] Building level 4
[2] Building level 4
[1] Building level 5
[0] Building level 5
[3] Building level 5
[2] Building level 5
[1] Building level 6
[0] Building level 6
[3] Building level 6
[2] Building level 6
[1] Building level 7
[0] Building level 7
[3] Building level 7
[1] Building level 8
[0] Building level 8
[1] Building level 9
[2] Building level 7
[1] Building level 10
[3] Building level 8
[0] Building level 9
[1] Building level 11
[1] Building level 12
[1] Building level 13
[1] Building level 14
[0] Building level 10
[0] Building level 11
[0] Building level 12
[0] Building level 13
[3] Building level 9
[0] Building level 14
14 Level construction complete
[3] Building level 10
[2] Building level 8
[3] Building level 11
[3] Building level 12
[3] Building level 13
[3] Building level 14
[2] Building level 9
[2] Building level 10
[2] Building level 11
[2] Building level 12
[2] Building level 13
[2] Building level 14
initial dot_x = 116568
Iter #1 residual = 0.000261553
Iter #2 residual = 0.000155829
Iter #3 residual = 0.000114243
Iter #4 residual = 9.63072e-05
Iter #5 residual = 8.02538e-05
Iter #6 residual = 6.8177e-05
Iter #7 residual = 5.9309e-05
Iter #8 residual = 4.61951e-05
Iter #9 residual = 3.86203e-05
Iter #10 residual = 3.31615e-05
Iter #11 residual = 2.84546e-05
Iter #12 residual = 2.47048e-05
Iter #13 residual = 2.12612e-05
Iter #14 residual = 1.55889e-05
Iter #15 residual = 1.29207e-05
Iter #16 residual = 1.06399e-05
Iter #17 residual = 8.56751e-06
Iter #18 residual = 5.96487e-06
Iter #19 residual = 5.11129e-06
Iter #20 residual = 4.30019e-06
Iter #21 residual = 3.8316e-06
Iter #22 residual = 3.29641e-06
Iter #23 residual = 2.6422e-06
Iter #24 residual = 1.88881e-06
Iter #25 residual = 1.60651e-06
Iter #26 residual = 1.34721e-06
Iter #27 residual = 1.07111e-06
Iter #28 residual = 9.67608e-07
Iter #29 residual = 7.72725e-07
Iter #30 residual = 6.99891e-07
Iter #31 residual = 5.81188e-07
Iter #32 residual = 4.52222e-07
Iter #33 residual = 2.93803e-07
Iter #34 residual = 3.28956e-07
Iter #35 residual = 2.49827e-07
Iter #36 residual = 1.15515e-07
Iter #37 residual = 1.11315e-07
GPU: 37 iters: 10.834 s: 2.23502 GB/s
GPUAMG:  Solving for pd, Initial residual = 0.000725593, Final residual = 8.11219e-08, No Iterations 37
time step continuity errors : sum local = 3.85425e-12, global = -3.76291e-24, cumulative = -4.98417e-24
ExecutionTime = 392.91 s  ClockTime = 416 s

Courant Number mean: 2.95096e-05 max: 0.00764226 velocity magnitude: 0.11941
Time = 0.007

MULES: Solving for alpha1
Liquid phase volume fraction = 0.00275421  Min(alpha1) = -3.18092e-29  Max(alpha1) = 1
MULES: Solving for alpha1
Liquid phase volume fraction = 0.00275421  Min(alpha1) = -1.67944e-29  Max(alpha1) = 1
[3] Building level 0
[1] Building level 0
[0] Building level 0
[2] Building level 0
[3] Building level 1
[2] Building level 1
[0] Building level 1
Reconstruction on level 1
[1] Building level 1
[2] Building level 2
[1] Building level 2
[1] Building level 3
[2] Building level 3
Creating AMGLevel 
[0] Building level 2
Reconstruction on level 2
[3] Building level 2
[2] Building level 4
[1] Building level 4
[1] Building level 5
[2] Building level 5
Creating AMGLevel 
[1] Building level 6
[2] Building level 6
[0] Building level 3
Reconstruction on level 3
[3] Building level 3
[2] Building level 7
[1] Building level 7
[2] Building level 8
[1] Building level 8
[1] Building level 9
[2] Building level 9
[1] Building level 10
[2] Building level 10
[1] Building level 11
[2] Building level 11
[1] Building level 12
[2] Building level 12
[1] Building level 13
[2] Building level 13
[1] Building level 14
[2] Building level 14
Creating AMGLevel 
[0] Building level 4
Reconstruction on level 4
[3] Building level 4
[3] Building level 5
Creating AMGLevel 
[0] Building level 5
Reconstruction on level 5
[3] Building level 6
Creating AMGLevel 
[0] Building level 6
Reconstruction on level 6
[3] Building level 7
Creating AMGLevel 
[0] Building level 7
Reconstruction on level 7
[3] Building level 8
[3] Building level 9
[3] Building level 10
Creating AMGLevel 
[0] Building level 8
Reconstruction on level 8
[3] Building level 11
[3] Building level 12
[3] Building level 13
[3] Building level 14
Creating AMGLevel 
[0] Building level 9
Reconstruction on level 9
Creating AMGLevel 
[0] Building level 10
Reconstruction on level 10
Creating AMGLevel 
[0] Building level 11
Reconstruction on level 11
Creating AMGLevel 
[0] Building level 12
Reconstruction on level 12
Creating AMGLevel 
[0] Building level 13
Reconstruction on level 13
Creating AMGLevel 
[0] Building level 14
Reconstruction on level 14
Creating AMGLevel 
14 Level construction complete
initial dot_x = 113772
Iter #1 residual = 0.00144662
Iter #2 residual = 0.00079731
Iter #3 residual = 0.000473967
Iter #4 residual = 0.000294886
Iter #5 residual = 0.000182774
GPU: 5 iters: 1.62731 s: 2.0108 GB/s
GPUAMG:  Solving for pd, Initial residual = 0.0023257, Final residual = 0.000112157, No Iterations 5
[3] Building level 0
[2] Building level 0
[1] Building level 0
[0] Building level 0
[2] Building level 1
[3] Building level 1
[1] Building level 1
[0] Building level 1
[2] Building level 2
[0] Building level 2
[3] Building level 2
[1] Building level 2
[0] Building level 3
[2] Building level 3
[3] Building level 3
[1] Building level 3
[0] Building level 4
[2] Building level 4
[3] Building level 4
[1] Building level 4
[0] Building level 5
[2] Building level 5
[3] Building level 5
[1] Building level 5
[0] Building level 6
[2] Building level 6
[3] Building level 6
[0] Building level 7
[1] Building level 6
[0] Building level 8
[0] Building level 9
[2] Building level 7
[0] Building level 10
[3] Building level 7
[0] Building level 11
[0] Building level 12
[0] Building level 13
[0] Building level 14
14 Level construction complete
[1] Building level 7
[2] Building level 8
[3] Building level 8
[2] Building level 9
[1] Building level 8
[3] Building level 9
[2] Building level 10
[2] Building level 11
[3] Building level 10
[2] Building level 12
[1] Building level 9
[2] Building level 13
[2] Building level 14
[3] Building level 11
[3] Building level 12
[3] Building level 13
[3] Building level 14
[1] Building level 10
[1] Building level 11
[1] Building level 12
[1] Building level 13
[1] Building level 14
initial dot_x = 120831
Iter #1 residual = 0.00121983
Iter #2 residual = 0.000645375
Iter #3 residual = 0.000376686
Iter #4 residual = 0.000229215
Iter #5 residual = 0.00014125
Iter #6 residual = 9.20563e-05
Iter #7 residual = 6.03838e-05
GPU: 7 iters: 2.16774 s: 2.11329 GB/s
GPUAMG:  Solving for pd, Initial residual = 0.00111682, Final residual = 3.96135e-05, No Iterations 7
[2] Building level 0
[0] Building level 0
[1] Building level 0
[3] Building level 0
[3] Building level 1
[2] Building level 1
[1] Building level 1
[0] Building level 1
[0] Building level 2
[2] Building level 2
[3] Building level 2
[1] Building level 2
[0] Building level 3
[2] Building level 3
[3] Building level 3
[1] Building level 3
[0] Building level 4
[2] Building level 4
[1] Building level 4
[3] Building level 4
[0] Building level 5
[2] Building level 5
[1] Building level 5
[3] Building level 5
[0] Building level 6
[2] Building level 6
[1] Building level 6
[0] Building level 7
[3] Building level 6
[0] Building level 8
[2] Building level 7
[1] Building level 7
[0] Building level 9
[0] Building level 10
[0] Building level 11
[0] Building level 12
[0] Building level 13
[0] Building level 14
14 Level construction complete
[2] Building level 8
[1] Building level 8
[3] Building level 7
[2] Building level 9
[1] Building level 9
[1] Building level 10
[2] Building level 10
[1] Building level 11
[2] Building level 11
[1] Building level 12
[2] Building level 12
[1] Building level 13
[2] Building level 13
[1] Building level 14
[2] Building level 14
[3] Building level 8
[3] Building level 9
[3] Building level 10
[3] Building level 11
[3] Building level 12
[3] Building level 13
[3] Building level 14
initial dot_x = 115495
Iter #1 residual = 0.000185783
Iter #2 residual = 0.000111327
Iter #3 residual = 6.85385e-05
Iter #4 residual = 4.50394e-05
Iter #5 residual = 2.81888e-05
Iter #6 residual = 1.84045e-05
Iter #7 residual = 1.26968e-05
Iter #8 residual = 8.60725e-06
Iter #9 residual = 5.8862e-06
Iter #10 residual = 3.95896e-06
Iter #11 residual = 2.71487e-06
Iter #12 residual = 2.08921e-06
Iter #13 residual = 1.60993e-06
Iter #14 residual = 1.341e-06
Iter #15 residual = 1.02232e-06
Iter #16 residual = 6.90485e-07
Iter #17 residual = 5.42305e-07
Iter #18 residual = 3.67097e-07
Iter #19 residual = 1.84618e-07
Iter #20 residual = 1.59988e-07
Iter #21 residual = 1.22124e-07
GPU: 21 iters: 5.9427 s: 2.31262 GB/s
GPUAMG:  Solving for pd, Initial residual = 0.000551445, Final residual = 8.38165e-08, No Iterations 21
time step continuity errors : sum local = 3.96562e-12, global = 1.95251e-24, cumulative = -3.03166e-24
ExecutionTime = 452.44 s  ClockTime = 477 s

Courant Number mean: 3.46306e-05 max: 0.00834949 velocity magnitude: 0.130461
Time = 0.008

MULES: Solving for alpha1
Liquid phase volume fraction = 0.00275421  Min(alpha1) = -1.86122e-30  Max(alpha1) = 1
MULES: Solving for alpha1
Liquid phase volume fraction = 0.00275421  Min(alpha1) = -3.40512e-30  Max(alpha1) = 1
[0] Building level 0
[2] Building level 0
[3] Building level 0
[1] Building level 0
[3] Building level 1
[2] Building level 1
[0] Building level 1
[1] Building level 1
[2] Building level 2
[0] Building level 2
Reconstruction on level 2
[1] Building level 2
[1] Building level 3
[2] Building level 3
Creating AMGLevel 
[0] Building level 3
Reconstruction on level 3
[3] Building level 2
[2] Building level 4
[1] Building level 4
Creating AMGLevel 
[0] Building level 4
Reconstruction on level 4
[2] Building level 5
[1] Building level 5
Creating AMGLevel 
[0] Building level 5
Reconstruction on level 5
[3] Building level 3
[2] Building level 6
[1] Building level 6
Creating AMGLevel 
[0] Building level 6
Reconstruction on level 6
[2] Building level 7
[1] Building level 7
[2] Building level 8
[1] Building level 8
[2] Building level 9
[1] Building level 9
[2] Building level 10
Creating AMGLevel 
[1] Building level 10
[0] Building level 7
Reconstruction on level 7
[2] Building level 11
[2] Building level 12
[1] Building level 11
[2] Building level 13
[1] Building level 12
[2] Building level 14
[1] Building level 13
[1] Building level 14
Creating AMGLevel 
[0] Building level 8
Reconstruction on level 8
Creating AMGLevel 
[0] Building level 9
Reconstruction on level 9
Creating AMGLevel 
[0] Building level 10
Reconstruction on level 10
Creating AMGLevel 
[0] Building level 11
Reconstruction on level 11
Creating AMGLevel 
[0] Building level 12
Reconstruction on level 12
Creating AMGLevel 
[0] Building level 13
Reconstruction on level 13
Creating AMGLevel 
[0] Building level 14
Reconstruction on level 14
Creating AMGLevel 
14 Level construction complete
[3] Building level 4
[3] Building level 5
[3] Building level 6
[3] Building level 7
[3] Building level 8
[3] Building level 9
[3] Building level 10
[3] Building level 11
[3] Building level 12
[3] Building level 13
[3] Building level 14
initial dot_x = 113738
Iter #1 residual = 0.00146122
Iter #2 residual = 0.000780074
Iter #3 residual = 0.000458741
Iter #4 residual = 0.000283388
Iter #5 residual = 0.000175581
GPU: 5 iters: 1.607 s: 2.0362 GB/s
GPUAMG:  Solving for pd, Initial residual = 0.00236154, Final residual = 0.000108501, No Iterations 5
[1] Building level 0
[0] Building level 0
[2] Building level 0
[3] Building level 0
[3] Building level 1
[2] Building level 1
[1] Building level 1
[0] Building level 1
[2] Building level 2
[0] Building level 2
[3] Building level 2
[1] Building level 2
[2] Building level 3
[0] Building level 3
[3] Building level 3
[1] Building level 3
[0] Building level 4
[2] Building level 4
[3] Building level 4
[1] Building level 4
[0] Building level 5
[2] Building level 5
[3] Building level 5
[0] Building level 6
[1] Building level 5
[2] Building level 6
[0] Building level 7
[3] Building level 6
[0] Building level 8
[0] Building level 9
[2] Building level 7
[0] Building level 10
[0] Building level 11
[1] Building level 6
[0] Building level 12
[0] Building level 13
[0] Building level 14
14 Level construction complete
[3] Building level 7
[2] Building level 8
[2] Building level 9
[3] Building level 8
[2] Building level 10
[1] Building level 7
[2] Building level 11
[2] Building level 12
[2] Building level 13
[2] Building level 14
[3] Building level 9
[3] Building level 10
[3] Building level 11
[3] Building level 12
[3] Building level 13
[3] Building level 14
[1] Building level 8
[1] Building level 9
[1] Building level 10
[1] Building level 11
[1] Building level 12
[1] Building level 13
[1] Building level 14
initial dot_x = 120076
Iter #1 residual = 0.0012569
Iter #2 residual = 0.000652087
Iter #3 residual = 0.000375402
Iter #4 residual = 0.000220786
Iter #5 residual = 0.000149418
Iter #6 residual = 9.98068e-05
Iter #7 residual = 7.38064e-05
Iter #8 residual = 5.9593e-05
GPU: 8 iters: 2.4121 s: 2.17052 GB/s
GPUAMG:  Solving for pd, Initial residual = 0.00108425, Final residual = 4.80836e-05, No Iterations 8
[1] Building level 0
[0] Building level 0
[3] Building level 0
[2] Building level 0
[3] Building level 1
[2] Building level 1
[1] Building level 1
[0] Building level 1
[2] Building level 2
[0] Building level 2
[3] Building level 2
[1] Building level 2
[0] Building level 3
[2] Building level 3
[1] Building level 3
[3] Building level 3
[0] Building level 4
[3] Building level 4
[2] Building level 4
[1] Building level 4
[0] Building level 5
[3] Building level 5
[2] Building level 5
[1] Building level 5
[0] Building level 6
[0] Building level 7
[3] Building level 6
[2] Building level 6
[1] Building level 6
[0] Building level 8
[0] Building level 9
[0] Building level 10
[0] Building level 11
[0] Building level 12
[0] Building level 13
[0] Building level 14
14 Level construction complete
[3] Building level 7
[2] Building level 7
[1] Building level 7
[3] Building level 8
[1] Building level 8
[2] Building level 8
[3] Building level 9
[3] Building level 10
[1] Building level 9
[3] Building level 11
[2] Building level 9
[3] Building level 12
[3] Building level 13
[3] Building level 14
[1] Building level 10
[2] Building level 10
[1] Building level 11
[2] Building level 11
[1] Building level 12
[2] Building level 12
[1] Building level 13
[2] Building level 13
[1] Building level 14
[2] Building level 14
initial dot_x = 113776
Iter #1 residual = 0.000209593
Iter #2 residual = 0.000113909
Iter #3 residual = 7.24009e-05
Iter #4 residual = 5.04193e-05
Iter #5 residual = 4.01367e-05
Iter #6 residual = 3.18296e-05
Iter #7 residual = 2.58323e-05
Iter #8 residual = 2.09909e-05
Iter #9 residual = 1.74978e-05
Iter #10 residual = 1.44885e-05
Iter #11 residual = 1.22288e-05
Iter #12 residual = 1.01777e-05
Iter #13 residual = 7.2009e-06
Iter #14 residual = 4.75169e-06
Iter #15 residual = 3.72989e-06
Iter #16 residual = 2.98101e-06
Iter #17 residual = 2.03891e-06
Iter #18 residual = 1.23412e-06
Iter #19 residual = 8.54563e-07
Iter #20 residual = 6.12097e-07
Iter #21 residual = 5.12729e-07
Iter #22 residual = 3.77396e-07
Iter #23 residual = 3.20545e-07
Iter #24 residual = 2.45386e-07
Iter #25 residual = 2.11096e-07
Iter #26 residual = 1.60881e-07
Iter #27 residual = 1.38524e-07
Iter #28 residual = 1.07607e-07
GPU: 28 iters: 7.74048 s: 2.36733 GB/s
GPUAMG:  Solving for pd, Initial residual = 0.000481207, Final residual = 7.24197e-08, No Iterations 28
time step continuity errors : sum local = 3.36239e-12, global = 1.98665e-24, cumulative = -1.04501e-24
ExecutionTime = 513.33 s  ClockTime = 540 s

Courant Number mean: 3.97656e-05 max: 0.00903215 velocity magnitude: 0.140375
Time = 0.009

MULES: Solving for alpha1
Liquid phase volume fraction = 0.00275421  Min(alpha1) = -4.45382e-30  Max(alpha1) = 1
MULES: Solving for alpha1
Liquid phase volume fraction = 0.00275421  Min(alpha1) = -9.12219e-30  Max(alpha1) = 1
[3] Building level 0
[1] Building level 0
[2] Building level 0
[0] Building level 0
[3] Building level 1
[0] Building level 1
Reconstruction on level 1
[2] Building level 1
[1] Building level 1
[2] Building level 2
[1] Building level 2
[1] Building level 3
[2] Building level 3
Creating AMGLevel 
[3] Building level 2
[1] Building level 4
[0] Building level 2
Reconstruction on level 2
[2] Building level 4
[1] Building level 5
[2] Building level 5
[1] Building level 6
Creating AMGLevel 
[2] Building level 6
[0] Building level 3
Reconstruction on level 3
[3] Building level 3
[1] Building level 7
[2] Building level 7
[1] Building level 8
[2] Building level 8
[1] Building level 9
[1] Building level 10
[2] Building level 9
[1] Building level 11
[1] Building level 12
[1] Building level 13
[1] Building level 14
[2] Building level 10
[2] Building level 11
[2] Building level 12
[2] Building level 13
[2] Building level 14
[3] Building level 4
Creating AMGLevel 
[0] Building level 4
Reconstruction on level 4
[3] Building level 5
Creating AMGLevel 
[0] Building level 5
Reconstruction on level 5
[3] Building level 6
Creating AMGLevel 
[0] Building level 6
Reconstruction on level 6
[3] Building level 7
[3] Building level 8
Creating AMGLevel 
[0] Building level 7
Reconstruction on level 7
[3] Building level 9
[3] Building level 10
[3] Building level 11
[3] Building level 12
[3] Building level 13
[3] Building level 14
Creating AMGLevel 
[0] Building level 8
Reconstruction on level 8
Creating AMGLevel 
[0] Building level 9
Reconstruction on level 9
Creating AMGLevel 
[0] Building level 10
Reconstruction on level 10
Creating AMGLevel 
[0] Building level 11
Reconstruction on level 11
Creating AMGLevel 
[0] Building level 12
Reconstruction on level 12
Creating AMGLevel 
[0] Building level 13
Reconstruction on level 13
Creating AMGLevel 
[0] Building level 14
Reconstruction on level 14
Creating AMGLevel 
14 Level construction complete
initial dot_x = 113976
Iter #1 residual = 0.00144498
Iter #2 residual = 0.000780313
Iter #3 residual = 0.000447254
Iter #4 residual = 0.000263226
Iter #5 residual = 0.000174604
Iter #6 residual = 0.000134127
GPU: 6 iters: 1.8845 s: 2.08365 GB/s
GPUAMG:  Solving for pd, Initial residual = 0.00242304, Final residual = 0.000108076, No Iterations 6
[0] Building level 0
[2] Building level 0
[1] Building level 0
[3] Building level 0
[3] Building level 1
[2] Building level 1
[0] Building level 1
[1] Building level 1
[2] Building level 2
[3] Building level 2
[0] Building level 2
[1] Building level 2
[2] Building level 3
[3] Building level 3
[0] Building level 3
[1] Building level 3
[3] Building level 4
[2] Building level 4
[0] Building level 4
[1] Building level 4
[3] Building level 5
[2] Building level 5
[0] Building level 5
[1] Building level 5
[3] Building level 6
[2] Building level 6
[0] Building level 6
[3] Building level 7
[1] Building level 6
[2] Building level 7
[3] Building level 8
[0] Building level 7
[3] Building level 9
[2] Building level 8
[3] Building level 10
[3] Building level 11
[3] Building level 12
[3] Building level 13
[3] Building level 14
[2] Building level 9
[1] Building level 7
[0] Building level 8
[2] Building level 10
[2] Building level 11
[2] Building level 12
[2] Building level 13
[2] Building level 14
[0] Building level 9
[0] Building level 10
[0] Building level 11
[0] Building level 12
[1] Building level 8
[0] Building level 13
[0] Building level 14
14 Level construction complete
[1] Building level 9
[1] Building level 10
[1] Building level 11
[1] Building level 12
[1] Building level 13
[1] Building level 14
initial dot_x = 119618
Iter #1 residual = 0.00124172
Iter #2 residual = 0.000661314
Iter #3 residual = 0.000391732
Iter #4 residual = 0.000275147
Iter #5 residual = 0.000203827
Iter #6 residual = 0.000161352
Iter #7 residual = 0.000128912
Iter #8 residual = 0.000106675
Iter #9 residual = 8.73233e-05
Iter #10 residual = 6.61154e-05
GPU: 10 iters: 2.95381 s: 2.21557 GB/s
GPUAMG:  Solving for pd, Initial residual = 0.00103985, Final residual = 4.6308e-05, No Iterations 10
[1] Building level 0
[3] Building level 0
[2] Building level 0
[0] Building level 0
[3] Building level 1
[2] Building level 1
[1] Building level 1
[0] Building level 1
[2] Building level 2
[3] Building level 2
[1] Building level 2
[0] Building level 2
[2] Building level 3
[3] Building level 3
[1] Building level 3
[0] Building level 3
[3] Building level 4
[2] Building level 4
[1] Building level 4
[0] Building level 4
[2] Building level 5
[3] Building level 5
[1] Building level 5
[0] Building level 5
[2] Building level 6
[1] Building level 6
[3] Building level 6
[0] Building level 6
[2] Building level 7
[1] Building level 7
[3] Building level 7
[2] Building level 8
[1] Building level 8
[3] Building level 8
[2] Building level 9
[1] Building level 9
[3] Building level 9
[2] Building level 10
[1] Building level 10
[0] Building level 7
[3] Building level 10
[2] Building level 11
[1] Building level 11
[2] Building level 12
[1] Building level 12
[2] Building level 13
[1] Building level 13
[3] Building level 11
[2] Building level 14
[1] Building level 14
[3] Building level 12
[3] Building level 13
[3] Building level 14
[0] Building level 8
[0] Building level 9
[0] Building level 10
[0] Building level 11
[0] Building level 12
[0] Building level 13
[0] Building level 14
14 Level construction complete
initial dot_x = 115766
Iter #1 residual = 0.000198787
Iter #2 residual = 0.000122087
Iter #3 residual = 9.47871e-05
Iter #4 residual = 7.39777e-05
Iter #5 residual = 5.72825e-05
Iter #6 residual = 4.66239e-05
Iter #7 residual = 3.86584e-05
Iter #8 residual = 2.73194e-05
Iter #9 residual = 1.80112e-05
Iter #10 residual = 1.3799e-05
Iter #11 residual = 1.10935e-05
Iter #12 residual = 9.50461e-06
Iter #13 residual = 7.77459e-06
Iter #14 residual = 6.63267e-06
Iter #15 residual = 5.51845e-06
Iter #16 residual = 4.03254e-06
Iter #17 residual = 2.75182e-06
Iter #18 residual = 1.90424e-06
Iter #19 residual = 1.45837e-06
Iter #20 residual = 9.45738e-07
Iter #21 residual = 6.22018e-07
Iter #22 residual = 4.20501e-07
Iter #23 residual = 2.68972e-07
Iter #24 residual = 1.8396e-07
Iter #25 residual = 1.08672e-07
GPU: 25 iters: 7.00413 s: 2.3359 GB/s
GPUAMG:  Solving for pd, Initial residual = 0.000401478, Final residual = 7.0916e-08, No Iterations 25
time step continuity errors : sum local = 3.50829e-12, global = -8.07776e-25, cumulative = -1.85279e-24
ExecutionTime = 574.48 s  ClockTime = 603 s

Courant Number mean: 4.49203e-05 max: 0.00971311 velocity magnitude: 0.14937
Time = 0.01

MULES: Solving for alpha1
Liquid phase volume fraction = 0.00275421  Min(alpha1) = -1.66525e-29  Max(alpha1) = 1
MULES: Solving for alpha1
Liquid phase volume fraction = 0.00275421  Min(alpha1) = -3.22388e-29  Max(alpha1) = 1
[2] Building level 0
[0] Building level 0
[1] Building level 0
[3] Building level 0
[3] Building level 1
[0] Building level 1
[2] Building level 1
[1] Building level 1
[2] Building level 2
[0] Building level 2
Reconstruction on level 2
Creating AMGLevel 
[0] Building level 3
Reconstruction on level 3
[2] Building level 3
[1] Building level 2
[3] Building level 2
Creating AMGLevel 
[0] Building level 4
Reconstruction on level 4
[2] Building level 4
[2] Building level 5
Creating AMGLevel 
[0] Building level 5
Reconstruction on level 5
[1] Building level 3
[3] Building level 3
[2] Building level 6
Creating AMGLevel 
[0] Building level 6
Reconstruction on level 6
[2] Building level 7
[2] Building level 8
Creating AMGLevel 
[0] Building level 7
Reconstruction on level 7
[2] Building level 9
[2] Building level 10
[2] Building level 11
[2] Building level 12
[2] Building level 13
[2] Building level 14
Creating AMGLevel 
[0] Building level 8
Reconstruction on level 8
Creating AMGLevel 
[0] Building level 9
Reconstruction on level 9
Creating AMGLevel 
[0] Building level 10
Reconstruction on level 10
Creating AMGLevel 
[0] Building level 11
Reconstruction on level 11
Creating AMGLevel 
[0] Building level 12
Reconstruction on level 12
Creating AMGLevel 
[0] Building level 13
Reconstruction on level 13
Creating AMGLevel 
[0] Building level 14
Reconstruction on level 14
Creating AMGLevel 
14 Level construction complete
[1] Building level 4
[3] Building level 4
[1] Building level 5
[3] Building level 5
[1] Building level 6
[3] Building level 6
[1] Building level 7
[1] Building level 8
[3] Building level 7
[1] Building level 9
[1] Building level 10
[3] Building level 8
[1] Building level 11
[1] Building level 12
[1] Building level 13
[1] Building level 14
[3] Building level 9
[3] Building level 10
[3] Building level 11
[3] Building level 12
[3] Building level 13
[3] Building level 14
initial dot_x = 113629
Iter #1 residual = 0.00140816
Iter #2 residual = 0.000770091
Iter #3 residual = 0.000447967
Iter #4 residual = 0.000276676
Iter #5 residual = 0.000170476
GPU: 5 iters: 1.58016 s: 2.07079 GB/s
GPUAMG:  Solving for pd, Initial residual = 0.0025875, Final residual = 0.000108123, No Iterations 5
[0] Building level 0
[2] Building level 0
[1] Building level 0
[3] Building level 0
[3] Building level 1
[1] Building level 1
[2] Building level 1
[0] Building level 1
[2] Building level 2
[3] Building level 2
[1] Building level 2
[0] Building level 2
[2] Building level 3
[1] Building level 3
[3] Building level 3
[0] Building level 3
[3] Building level 4
[0] Building level 4
[2] Building level 4
[1] Building level 4
[3] Building level 5
[0] Building level 5
[1] Building level 5
[2] Building level 5
[3] Building level 6
[0] Building level 6
[1] Building level 6
[2] Building level 6
[3] Building level 7
[0] Building level 7
[1] Building level 7
[3] Building level 8
[0] Building level 8
[2] Building level 7
[3] Building level 9
[1] Building level 8
[0] Building level 9
[3] Building level 10
[3] Building level 11
[0] Building level 10
[3] Building level 12
[3] Building level 13
[1] Building level 9
[3] Building level 14
[0] Building level 11
[0] Building level 12
[0] Building level 13
[0] Building level 14
14 Level construction complete
[1] Building level 10
[2] Building level 8
[1] Building level 11
[1] Building level 12
[1] Building level 13
[1] Building level 14
[2] Building level 9
[2] Building level 10
[2] Building level 11
[2] Building level 12
[2] Building level 13
[2] Building level 14
initial dot_x = 119538
Iter #1 residual = 0.00121103
Iter #2 residual = 0.00064182
Iter #3 residual = 0.000368618
Iter #4 residual = 0.000224789
Iter #5 residual = 0.000137291
Iter #6 residual = 8.62017e-05
Iter #7 residual = 5.45312e-05
GPU: 7 iters: 2.12146 s: 2.1594 GB/s
GPUAMG:  Solving for pd, Initial residual = 0.00101718, Final residual = 3.48729e-05, No Iterations 7
[1] Building level 0
[3] Building level 0
[2] Building level 0
[0] Building level 0
[3] Building level 1
[2] Building level 1
[1] Building level 1
[0] Building level 1
[2] Building level 2
[3] Building level 2
[1] Building level 2
[0] Building level 2
[2] Building level 3
[3] Building level 3
[1] Building level 3
[0] Building level 3
[3] Building level 4
[1] Building level 4
[2] Building level 4
[0] Building level 4
[3] Building level 5
[1] Building level 5
[0] Building level 5
[2] Building level 5
[3] Building level 6
[1] Building level 6
[0] Building level 6
[2] Building level 6
[3] Building level 7
[1] Building level 7
[3] Building level 8
[0] Building level 7
[3] Building level 9
[2] Building level 7
[3] Building level 10
[1] Building level 8
[3] Building level 11
[3] Building level 12
[3] Building level 13
[3] Building level 14
[0] Building level 8
[1] Building level 9
[1] Building level 10
[0] Building level 9
[2] Building level 8
[1] Building level 11
[1] Building level 12
[1] Building level 13
[0] Building level 10
[1] Building level 14
[0] Building level 11
[0] Building level 12
[0] Building level 13
[0] Building level 14
14 Level construction complete
[2] Building level 9
[2] Building level 10
[2] Building level 11
[2] Building level 12
[2] Building level 13
[2] Building level 14
initial dot_x = 114368
Iter #1 residual = 0.000154397
Iter #2 residual = 9.55072e-05
Iter #3 residual = 5.86037e-05
Iter #4 residual = 3.72237e-05
Iter #5 residual = 2.33082e-05
Iter #6 residual = 1.52014e-05
Iter #7 residual = 9.45505e-06
Iter #8 residual = 5.85855e-06
Iter #9 residual = 3.59707e-06
Iter #10 residual = 2.25139e-06
Iter #11 residual = 1.43056e-06
Iter #12 residual = 9.3644e-07
Iter #13 residual = 6.28737e-07
Iter #14 residual = 4.30876e-07
Iter #15 residual = 2.95911e-07
Iter #16 residual = 2.2022e-07
Iter #17 residual = 1.43704e-07
Iter #18 residual = 1.41234e-07
GPU: 18 iters: 5.00717 s: 2.3526 GB/s
GPUAMG:  Solving for pd, Initial residual = 0.000337758, Final residual = 6.57762e-08, No Iterations 18
time step continuity errors : sum local = 3.01545e-12, global = 4.8297e-25, cumulative = -1.36982e-24
ExecutionTime = 631.74 s  ClockTime = 662 s

End

Finalising parallel run
