 Data for JOB [64361,1] offset 0

 ========================   JOB MAP   ========================

 Data for node: ivb106	Num slots: 6	Max slots: 0	Num procs: 6
 	Process OMPI jobid: [64361,1] App: 0 Process rank: 0
 	Process OMPI jobid: [64361,1] App: 0 Process rank: 1
 	Process OMPI jobid: [64361,1] App: 0 Process rank: 2
 	Process OMPI jobid: [64361,1] App: 0 Process rank: 3
 	Process OMPI jobid: [64361,1] App: 0 Process rank: 4
 	Process OMPI jobid: [64361,1] App: 0 Process rank: 5

 =============================================================
[ivb106:28923] MCW rank 3 bound to socket 0[core 3[hwt 0]]: [./././B/./././././.][./././././././././.]
[ivb106:28923] MCW rank 4 bound to socket 0[core 4[hwt 0]]: [././././B/././././.][./././././././././.]
[ivb106:28923] MCW rank 5 bound to socket 0[core 5[hwt 0]]: [./././././B/./././.][./././././././././.]
[ivb106:28923] MCW rank 0 bound to socket 0[core 0[hwt 0]]: [B/././././././././.][./././././././././.]
[ivb106:28923] MCW rank 1 bound to socket 0[core 1[hwt 0]]: [./B/./././././././.][./././././././././.]
[ivb106:28923] MCW rank 2 bound to socket 0[core 2[hwt 0]]: [././B/././././././.][./././././././././.]
1
0
2
3
4
5
/*---------------------------------------------------------------------------*\
| =========                 |                                                 |
| \\      /  F ield         | foam-extend: Open Source CFD                    |
|  \\    /   O peration     | Version:     3.1                                |
|   \\  /    A nd           | Web:         http://www.extend-project.de       |
|    \\/     M anipulation  |                                                 |
\*---------------------------------------------------------------------------*/
Build    : 3.1-e2da948002a2
Exec     : interFoam -parallel
Date     : May 21 2016
Time     : 10:07:12
Host     : ivb106
PID      : 28968
CtrlDict : /home-2/vplatonov/foam/foam-extend-3.1/etc/controlDict
Case     : /home/vplatonov/tests/rt12mln
nProcs   : 6
Slaves : 
5
(
ivb106.28967
ivb106.28972
ivb106.28984
ivb106.28978
ivb106.28989
)

Pstream initialized with:
    floatTransfer     : 0
    nProcsSimpleSum   : 0
    commsType         : blocking
SigFpe   : Enabling floating point exception trapping (FOAM_SIGFPE).

// * * * * * * * * * * * * * * * * * * * * * * * * * * * * * * * * * * * * * //
Create time

Create mesh for time = 0


Reading g
Reading field pd

Reading field alpha1

Reading field U

Reading/calculating face flux field phi

Reading transportProperties

Selecting incompressible transport model Newtonian
Selecting incompressible transport model Newtonian
Calculating field g.h

Selecting turbulence model type laminar
time step continuity errors : sum local = 0, global = 0, cumulative = 0
Created persistent data with name pcorr
GPUAMG:  Solving for pcorr, Initial residual = 0, Final residual = 0, No Iterations 0
time step continuity errors : sum local = 0, global = 0, cumulative = 0
Courant Number mean: 0 max: 0 velocity magnitude: 0

Starting time loop

Courant Number mean: 0 max: 0 velocity magnitude: 0
Time = 0.001

MULES: Solving for alpha1
Liquid phase volume fraction = 0.00275421  Min(alpha1) = 0  Max(alpha1) = 1
MULES: Solving for alpha1
Liquid phase volume fraction = 0.00275421  Min(alpha1) = 0  Max(alpha1) = 1
Created persistent data with name pd
[3] Building level 0
[4] Building level 0
[5] Building level 0
[0] Building level 0
[1] Building level 0
[2] Building level 0
[3] Building level 1
[2] Building level 1
[1] Building level 1
[4] Building level 1
Creating AMGLevel 
[0] Building level 1
[5] Building level 1
[2] Building level 2
[3] Building level 2
[4] Building level 2
[1] Building level 2
Creating AMGLevel 
[0] Building level 2
[5] Building level 2
[2] Building level 3
[3] Building level 3
[4] Building level 3
[1] Building level 3
Creating AMGLevel 
[0] Building level 3
[5] Building level 3
[2] Building level 4
[3] Building level 4
[1] Building level 4
[4] Building level 4
Creating AMGLevel 
[0] Building level 4
[5] Building level 4
[2] Building level 5
[3] Building level 5
[4] Building level 5
[1] Building level 5
Creating AMGLevel 
[0] Building level 5
[5] Building level 5
[2] Building level 6
[3] Building level 6
[4] Building level 6
[1] Building level 6
Creating AMGLevel 
[0] Building level 6
[2] Building level 7
[5] Building level 6
[3] Building level 7
[1] Building level 7
[2] Building level 8
[4] Building level 7
Creating AMGLevel 
[0] Building level 7
[3] Building level 8
[2] Building level 9
[1] Building level 8
[3] Building level 9
[2] Building level 10
[5] Building level 7
[4] Building level 8
Creating AMGLevel 
[0] Building level 8
[3] Building level 10
[2] Building level 11
[2] Building level 12
[1] Building level 9
[2] Building level 13
[3] Building level 11
[2] Building level 14
[4] Building level 9
[3] Building level 12
Creating AMGLevel 
[0] Building level 9
[3] Building level 13
[1] Building level 10
[3] Building level 14
[5] Building level 8
[4] Building level 10
[1] Building level 11
Creating AMGLevel 
[0] Building level 10
[1] Building level 12
[4] Building level 11
Creating AMGLevel 
[0] Building level 11
[1] Building level 13
Creating AMGLevel 
[0] Building level 12
[1] Building level 14
[4] Building level 12
Creating AMGLevel 
[0] Building level 13
[5] Building level 9
Creating AMGLevel 
[0] Building level 14
[4] Building level 13
Creating AMGLevel 
14 Level construction complete
[4] Building level 14
[5] Building level 10
[5] Building level 11
[5] Building level 12
[5] Building level 13
[5] Building level 14
initial dot_x = 0
Iter #1 residual = 0.0735088
GPU: 1 iters: 0.413811 s: 1.05402 GB/s
GPUAMG:  Solving for pd, Initial residual = 1, Final residual = 0.0272231, No Iterations 1
[3] Building level 0
[2] Building level 0
[0] Building level 0
[5] Building level 0
[1] Building level 0
[4] Building level 0
[5] Building level 1
[3] Building level 1
[0] Building level 1
[1] Building level 1
[2] Building level 1
[4] Building level 1
[3] Building level 2
[2] Building level 2
[0] Building level 2
[4] Building level 2
[5] Building level 2
[1] Building level 2
[3] Building level 3
[2] Building level 3
[4] Building level 3
[0] Building level 3
[5] Building level 3
[1] Building level 3
[3] Building level 4
[2] Building level 4
[4] Building level 4
[0] Building level 4
[5] Building level 4
[1] Building level 4
[3] Building level 5
[2] Building level 5
[0] Building level 5
[4] Building level 5
[5] Building level 5
[3] Building level 6
[1] Building level 5
[2] Building level 6
[3] Building level 7
[0] Building level 6
[4] Building level 6
[5] Building level 6
[3] Building level 8
[3] Building level 9
[2] Building level 7
[3] Building level 10
[0] Building level 7
[3] Building level 11
[3] Building level 12
[4] Building level 7
[3] Building level 13
[3] Building level 14
[5] Building level 7
[2] Building level 8
[0] Building level 8
[4] Building level 8
[1] Building level 6
[2] Building level 9
[5] Building level 8
[0] Building level 9
[4] Building level 9
[2] Building level 10
[0] Building level 10
[2] Building level 11
[4] Building level 10
[2] Building level 12
[0] Building level 11
[5] Building level 9
[2] Building level 13
[2] Building level 14
[0] Building level 12
[4] Building level 11
[0] Building level 13
[0] Building level 14
14 Level construction complete
[4] Building level 12
[4] Building level 13
[5] Building level 10
[4] Building level 14
[5] Building level 11
[5] Building level 12
[5] Building level 13
[5] Building level 14
[1] Building level 7
[1] Building level 8
[1] Building level 9
[1] Building level 10
[1] Building level 11
[1] Building level 12
[1] Building level 13
[1] Building level 14
initial dot_x = 75889.3
Iter #1 residual = 0.00835044
Iter #2 residual = 0.00430563
Iter #3 residual = 0.00228551
Iter #4 residual = 0.00122377
GPU: 4 iters: 1.02354 s: 1.70455 GB/s
GPUAMG:  Solving for pd, Initial residual = 0.0195871, Final residual = 0.000647023, No Iterations 4
[1] Building level 0
[0] Building level 0
[2] Building level 0
[4] Building level 0
[5] Building level 0
[3] Building level 0
[5] Building level 1
[3] Building level 1
[1] Building level 1
[0] Building level 1
[2] Building level 1
[4] Building level 1
[3] Building level 2
[0] Building level 2
[2] Building level 2
[4] Building level 2
[5] Building level 2
[1] Building level 2
[3] Building level 3
[2] Building level 3
[4] Building level 3
[0] Building level 3
[5] Building level 3
[1] Building level 3
[3] Building level 4
[2] Building level 4
[4] Building level 4
[0] Building level 4
[5] Building level 4
[1] Building level 4
[3] Building level 5
[0] Building level 5
[2] Building level 5
[4] Building level 5
[5] Building level 5
[3] Building level 6
[1] Building level 5
[0] Building level 6
[2] Building level 6
[3] Building level 7
[4] Building level 6
[5] Building level 6
[3] Building level 8
[3] Building level 9
[2] Building level 7
[3] Building level 10
[0] Building level 7
[3] Building level 11
[4] Building level 7
[3] Building level 12
[3] Building level 13
[3] Building level 14
[5] Building level 7
[2] Building level 8
[0] Building level 8
[4] Building level 8
[1] Building level 6
[2] Building level 9
[0] Building level 9
[5] Building level 8
[4] Building level 9
[2] Building level 10
[0] Building level 10
[2] Building level 11
[4] Building level 10
[0] Building level 11
[2] Building level 12
[0] Building level 12
[2] Building level 13
[0] Building level 13
[2] Building level 14
[4] Building level 11
[0] Building level 14
[5] Building level 9
14 Level construction complete
[4] Building level 12
[4] Building level 13
[4] Building level 14
[5] Building level 10
[5] Building level 11
[5] Building level 12
[5] Building level 13
[5] Building level 14
[1] Building level 7
[1] Building level 8
[1] Building level 9
[1] Building level 10
[1] Building level 11
[1] Building level 12
[1] Building level 13
[1] Building level 14
initial dot_x = 126222
Iter #1 residual = 0.00255173
Iter #2 residual = 0.00115623
Iter #3 residual = 0.000570631
Iter #4 residual = 0.000292654
Iter #5 residual = 0.00016098
Iter #6 residual = 0.000100295
Iter #7 residual = 6.15256e-05
Iter #8 residual = 3.91268e-05
Iter #9 residual = 2.58231e-05
Iter #10 residual = 2.19179e-05
Iter #11 residual = 1.37561e-05
Iter #12 residual = 1.00373e-05
Iter #13 residual = 6.90526e-06
Iter #14 residual = 5.13057e-06
Iter #15 residual = 3.44666e-06
Iter #16 residual = 5.892e-06
Iter #17 residual = 3.71607e-06
Iter #18 residual = 8.94786e-06
Iter #19 residual = 5.80038e-06
Iter #20 residual = 2.26004e-06
Iter #21 residual = 2.62579e-06
Iter #22 residual = 2.67692e-06
Iter #23 residual = 1.31802e-06
Iter #24 residual = 1.58024e-06
Iter #25 residual = 1.56364e-06
Iter #26 residual = 1.11675e-06
Iter #27 residual = 1.5193e-06
Iter #28 residual = 1.26439e-06
Iter #29 residual = 2.22693e-06
Iter #30 residual = 1.45394e-06
Iter #31 residual = 2.43838e-06
Iter #32 residual = 1.14132e-06
Iter #33 residual = 2.88461e-06
Iter #34 residual = 1.99543e-06
Iter #35 residual = 3.65429e-06
Iter #36 residual = 1.99664e-06
Iter #37 residual = 9.2425e-07
Iter #38 residual = 9.11529e-07
Iter #39 residual = 6.82465e-07
Iter #40 residual = 7.70175e-07
Iter #41 residual = 6.94558e-07
Iter #42 residual = 2.46879e-06
Iter #43 residual = 1.48569e-06
Iter #44 residual = 9.13798e-07
Iter #45 residual = 1.36596e-06
Iter #46 residual = 9.95667e-07
Iter #47 residual = 1.28653e-06
Iter #48 residual = 7.18884e-07
Iter #49 residual = 3.87018e-07
Iter #50 residual = 2.04766e-07
GPU: 50 iters: 10.4117 s: 2.0946 GB/s
GPUAMG:  Solving for pd, Initial residual = 0.00627283, Final residual = 3.02025e-07, No Iterations 50
time step continuity errors : sum local = 2.32747e-11, global = -3.62664e-24, cumulative = -3.62664e-24
ExecutionTime = 70.69 s  ClockTime = 87 s

Courant Number mean: 4.83972e-06 max: 0.00216219 velocity magnitude: 0.0337842
Time = 0.002

MULES: Solving for alpha1
Liquid phase volume fraction = 0.00275421  Min(alpha1) = 0  Max(alpha1) = 1
MULES: Solving for alpha1
Liquid phase volume fraction = 0.00275421  Min(alpha1) = 0  Max(alpha1) = 1
[3] Building level 0
[0] Building level 0
[5] Building level 0
[1] Building level 0
[4] Building level 0
[2] Building level 0
[5] Building level 1
[0] Building level 1
Reconstruction on level 1
[2] Building level 1
[1] Building level 1
[3] Building level 1
[4] Building level 1
[2] Building level 2
[3] Building level 2
[3] Building level 3
[2] Building level 3
[2] Building level 4
[3] Building level 4
[2] Building level 5
[3] Building level 5
[1] Building level 2
[4] Building level 2
[5] Building level 2
Creating AMGLevel 
[0] Building level 2
Reconstruction on level 2
[2] Building level 6
[3] Building level 6
[2] Building level 7
[3] Building level 7
[2] Building level 8
[3] Building level 8
[2] Building level 9
[3] Building level 9
[2] Building level 10
[3] Building level 10
[2] Building level 11
[2] Building level 12
[3] Building level 11
[2] Building level 13
[3] Building level 12
[2] Building level 14
[3] Building level 13
[3] Building level 14
Creating AMGLevel 
[0] Building level 3
Reconstruction on level 3
[1] Building level 3
[4] Building level 3
[5] Building level 3
[1] Building level 4
Creating AMGLevel 
[0] Building level 4
Reconstruction on level 4
[4] Building level 4
[5] Building level 4
[1] Building level 5
Creating AMGLevel 
[0] Building level 5
Reconstruction on level 5
[4] Building level 5
[5] Building level 5
[1] Building level 6
Creating AMGLevel 
[0] Building level 6
Reconstruction on level 6
[1] Building level 7
[4] Building level 6
[5] Building level 6
[1] Building level 8
Creating AMGLevel 
[0] Building level 7
Reconstruction on level 7
[1] Building level 9
[1] Building level 10
Creating AMGLevel 
[0] Building level 8
Reconstruction on level 8
[1] Building level 11
[1] Building level 12
[1] Building level 13
[4] Building level 7
[1] Building level 14
[5] Building level 7
Creating AMGLevel 
[0] Building level 9
Reconstruction on level 9
Creating AMGLevel 
[0] Building level 10
Reconstruction on level 10
Creating AMGLevel 
[0] Building level 11
Reconstruction on level 11
Creating AMGLevel 
[0] Building level 12
Reconstruction on level 12
[4] Building level 8
Creating AMGLevel 
[0] Building level 13
Reconstruction on level 13
[5] Building level 8
Creating AMGLevel 
[0] Building level 14
Reconstruction on level 14
Creating AMGLevel 
14 Level construction complete
[4] Building level 9
[5] Building level 9
[4] Building level 10
[5] Building level 10
[4] Building level 11
[5] Building level 11
[4] Building level 12
[4] Building level 13
[5] Building level 12
[4] Building level 14
[5] Building level 13
[5] Building level 14
initial dot_x = 115045
Iter #1 residual = 0.0194887
Iter #2 residual = 0.0151489
Iter #3 residual = 0.0115669
Iter #4 residual = 0.0161474
Iter #5 residual = 0.00908377
Iter #6 residual = 0.00407087
GMRES:  Solving for topLevelCorr, Initial residual = 0.916334, Final residual = 1.12542, No Iterations 200
Iter #7 residual = 0.00297725
GMRES:  Solving for topLevelCorr, Initial residual = 0.828183, Final residual = 0.838786, No Iterations 200
Iter #8 residual = 0.00177467
GMRES:  Solving for topLevelCorr, Initial residual = 0.916187, Final residual = 1.16869, No Iterations 200
Iter #9 residual = 0.00237125
Iter #10 residual = 0.0205396
Iter #11 residual = 0.0177587
Iter #12 residual = 0.0105655
Iter #13 residual = 0.0124072
Iter #14 residual = 0.00766646
Iter #15 residual = 0.0107747
Iter #16 residual = 0.0069409
Iter #17 residual = 0.0112933
Iter #18 residual = 0.00522506
Iter #19 residual = 0.00652732
Iter #20 residual = 0.00767695
Iter #21 residual = 0.00332759
Iter #22 residual = 0.00454456
Iter #23 residual = 0.00834814
Iter #24 residual = 0.00359441
Iter #25 residual = 0.0066597
Iter #26 residual = 0.00547213
Iter #27 residual = 0.00458114
Iter #28 residual = 0.00310452
Iter #29 residual = 0.00436174
Iter #30 residual = 0.00565505
Iter #31 residual = 0.00210236
Iter #32 residual = 0.00313709
Iter #33 residual = 0.00360386
Iter #34 residual = 0.00155362
Iter #35 residual = 0.00344644
Iter #36 residual = 0.00146336
Iter #37 residual = 0.00201735
Iter #38 residual = 0.00220182
Iter #39 residual = 0.00123084
Iter #40 residual = 0.00114526
Iter #41 residual = 0.00131944
Iter #42 residual = 0.00102011
Iter #43 residual = 0.00137229
Iter #44 residual = 0.000938392
Iter #45 residual = 0.000991093
Iter #46 residual = 0.000594522
Iter #47 residual = 0.00102074
Iter #48 residual = 0.000722696
Iter #49 residual = 0.000377772
Iter #50 residual = 0.00100042
GPU: 50 iters: 10.4394 s: 2.08903 GB/s
GPUAMG:  Solving for pd, Initial residual = 0.00446204, Final residual = 0.00126684, No Iterations 50
[4] Building level 0
[5] Building level 0
[1] Building level 0
[3] Building level 0
[2] Building level 0
[0] Building level 0
[3] Building level 1
[1] Building level 1
[2] Building level 1
[5] Building level 1
[0] Building level 1
[4] Building level 1
[1] Building level 2
[3] Building level 2
[2] Building level 2
[5] Building level 2
[0] Building level 2
[4] Building level 2
[3] Building level 3
[1] Building level 3
[2] Building level 3
[5] Building level 3
[4] Building level 3
[0] Building level 3
[2] Building level 4
[1] Building level 4
[3] Building level 4
[5] Building level 4
[0] Building level 4
[1] Building level 5
[4] Building level 4
[2] Building level 5
[3] Building level 5
[1] Building level 6
[2] Building level 6
[5] Building level 5
[0] Building level 5
[1] Building level 7
[3] Building level 6
[1] Building level 8
[2] Building level 7
[4] Building level 5
[1] Building level 9
[1] Building level 10
[1] Building level 11
[1] Building level 12
[1] Building level 13
[2] Building level 8
[1] Building level 14
[3] Building level 7
[2] Building level 9
[0] Building level 6
[2] Building level 10
[5] Building level 6
[2] Building level 11
[2] Building level 12
[2] Building level 13
[2] Building level 14
[3] Building level 8
[3] Building level 9
[3] Building level 10
[3] Building level 11
[3] Building level 12
[3] Building level 13
[3] Building level 14
[0] Building level 7
[5] Building level 7
[4] Building level 6
[5] Building level 8
[0] Building level 8
[5] Building level 9
[0] Building level 9
[5] Building level 10
[0] Building level 10
[5] Building level 11
[0] Building level 11
[5] Building level 12
[4] Building level 7
[5] Building level 13
[0] Building level 12
[5] Building level 14
[0] Building level 13
[0] Building level 14
14 Level construction complete
[4] Building level 8
[4] Building level 9
[4] Building level 10
[4] Building level 11
[4] Building level 12
[4] Building level 13
[4] Building level 14
initial dot_x = 8.79659e+09
Iter #1 residual = 0.0251961
Iter #2 residual = 0.0179894
Iter #3 residual = 0.0216046
Iter #4 residual = 0.0127306
Iter #5 residual = 0.023654
Iter #6 residual = 0.0134018
Iter #7 residual = 0.0245175
Iter #8 residual = 0.0132951
Iter #9 residual = 0.0124439
Iter #10 residual = 0.0200752
Iter #11 residual = 0.0102968
Iter #12 residual = 0.0206089
Iter #13 residual = 0.00761663
Iter #14 residual = 0.00995401
Iter #15 residual = 0.00487433
Iter #16 residual = 0.00267117
Iter #17 residual = 0.00778959
Iter #18 residual = 0.00455669
Iter #19 residual = 0.00670806
Iter #20 residual = 0.00717465
Iter #21 residual = 0.00510161
Iter #22 residual = 0.0020373
Iter #23 residual = 0.00540707
Iter #24 residual = 0.00213991
Iter #25 residual = 0.0020352
Iter #26 residual = 0.00161522
Iter #27 residual = 0.00184917
Iter #28 residual = 0.00163228
Iter #29 residual = 0.00186666
Iter #30 residual = 0.0011869
Iter #31 residual = 0.00197471
Iter #32 residual = 0.00157767
Iter #33 residual = 0.00259077
Iter #34 residual = 0.00136207
Iter #35 residual = 0.00135276
Iter #36 residual = 0.00184069
Iter #37 residual = 0.000692506
Iter #38 residual = 0.00188292
Iter #39 residual = 0.00151019
Iter #40 residual = 0.001504
Iter #41 residual = 0.00175513
Iter #42 residual = 0.000529706
Iter #43 residual = 0.000813152
Iter #44 residual = 0.000799162
Iter #45 residual = 0.000450542
Iter #46 residual = 0.000640379
Iter #47 residual = 0.000444921
Iter #48 residual = 0.000789893
Iter #49 residual = 0.000812194
Iter #50 residual = 0.00058617
GPU: 50 iters: 10.4511 s: 2.0867 GB/s
GPUAMG:  Solving for pd, Initial residual = 0.00518408, Final residual = 0.000549456, No Iterations 50
[0] Building level 0
[1] Building level 0
[4] Building level 0
[3] Building level 0
[5] Building level 0
[2] Building level 0
[3] Building level 1
[1] Building level 1
[2] Building level 1
[0] Building level 1
[5] Building level 1
[4] Building level 1
[2] Building level 2
[1] Building level 2
[3] Building level 2
[0] Building level 2
[5] Building level 2
[4] Building level 2
[1] Building level 3
[3] Building level 3
[2] Building level 3
[5] Building level 3
[4] Building level 3
[0] Building level 3
[2] Building level 4
[1] Building level 4
[3] Building level 4
[0] Building level 4
[5] Building level 4
[4] Building level 4
[1] Building level 5
[2] Building level 5
[0] Building level 5
[3] Building level 5
[1] Building level 6
[5] Building level 5
[2] Building level 6
[0] Building level 6
[1] Building level 7
[4] Building level 5
[3] Building level 6
[2] Building level 7
[1] Building level 8
[0] Building level 7
[1] Building level 9
[1] Building level 10
[2] Building level 8
[1] Building level 11
[1] Building level 12
[1] Building level 13
[1] Building level 14
[0] Building level 8
[2] Building level 9
[3] Building level 7
[5] Building level 6
[2] Building level 10
[2] Building level 11
[0] Building level 9
[2] Building level 12
[2] Building level 13
[2] Building level 14
[0] Building level 10
[0] Building level 11
[0] Building level 12
[0] Building level 13
[0] Building level 14
14 Level construction complete
[3] Building level 8
[4] Building level 6
[3] Building level 9
[3] Building level 10
[5] Building level 7
[3] Building level 11
[3] Building level 12
[3] Building level 13
[3] Building level 14
[5] Building level 8
[4] Building level 7
[5] Building level 9
[5] Building level 10
[5] Building level 11
[5] Building level 12
[5] Building level 13
[5] Building level 14
[4] Building level 8
[4] Building level 9
[4] Building level 10
[4] Building level 11
[4] Building level 12
[4] Building level 13
[4] Building level 14
initial dot_x = 1.03391e+08
Iter #1 residual = 0.0236023
Iter #2 residual = 0.0270984
Iter #3 residual = 0.011306
Iter #4 residual = 0.0136327
Iter #5 residual = 0.0102426
Iter #6 residual = 0.0183191
Iter #7 residual = 0.0180063
Iter #8 residual = 0.0151557
Iter #9 residual = 0.00735359
Iter #10 residual = 0.0091352
Iter #11 residual = 0.00701736
Iter #12 residual = 0.00975263
Iter #13 residual = 0.00615472
Iter #14 residual = 0.010663
Iter #15 residual = 0.00679391
Iter #16 residual = 0.009882
Iter #17 residual = 0.0061969
Iter #18 residual = 0.0152704
Iter #19 residual = 0.0142263
Iter #20 residual = 0.00400933
Iter #21 residual = 0.00446082
Iter #22 residual = 0.00622235
Iter #23 residual = 0.0082091
Iter #24 residual = 0.00428437
Iter #25 residual = 0.00809742
Iter #26 residual = 0.0111355
Iter #27 residual = 0.00793701
Iter #28 residual = 0.00231759
Iter #29 residual = 0.00446306
Iter #30 residual = 0.00383542
Iter #31 residual = 0.00199761
Iter #32 residual = 0.00288728
Iter #33 residual = 0.00207382
Iter #34 residual = 0.00367896
Iter #35 residual = 0.00359963
Iter #36 residual = 0.00292604
Iter #37 residual = 0.00161641
Iter #38 residual = 0.00151514
Iter #39 residual = 0.00282351
Iter #40 residual = 0.00212739
Iter #41 residual = 0.00220929
Iter #42 residual = 0.00179451
Iter #43 residual = 0.00256377
Iter #44 residual = 0.00134407
Iter #45 residual = 0.00154636
Iter #46 residual = 0.00130739
Iter #47 residual = 0.00237041
Iter #48 residual = 0.001861
Iter #49 residual = 0.00116174
Iter #50 residual = 0.00165324
GPU: 50 iters: 10.4678 s: 2.08337 GB/s
GPUAMG:  Solving for pd, Initial residual = 0.00419756, Final residual = 0.00127198, No Iterations 50
time step continuity errors : sum local = 9.59712e-08, global = -4.12182e-08, cumulative = -4.12182e-08
ExecutionTime = 136.86 s  ClockTime = 155 s

Courant Number mean: 1.2978e-05 max: 0.193235 velocity magnitude: 1.50965
Time = 0.003

MULES: Solving for alpha1
Liquid phase volume fraction = 0.00275424  Min(alpha1) = -2.62533e-30  Max(alpha1) = 1
MULES: Solving for alpha1
Liquid phase volume fraction = 0.00275426  Min(alpha1) = -3.10426e-31  Max(alpha1) = 1
[4] Building level 0
[1] Building level 0
[2] Building level 0
[5] Building level 0
[0] Building level 0
[3] Building level 0
[1] Building level 1
[3] Building level 1
[2] Building level 1
[0] Building level 1
Reconstruction on level 1
[5] Building level 1
[4] Building level 1
[3] Building level 2
[1] Building level 2
[2] Building level 2
[4] Building level 2
[3] Building level 3
[2] Building level 3
[2] Building level 4
[3] Building level 4
[1] Building level 3
[4] Building level 3
[2] Building level 5
[3] Building level 5
Creating AMGLevel 
[0] Building level 2
Reconstruction on level 2
[5] Building level 2
[2] Building level 6
[1] Building level 4
[3] Building level 6
[4] Building level 4
[2] Building level 7
[3] Building level 7
[2] Building level 8
[3] Building level 8
[2] Building level 9
[3] Building level 9
[2] Building level 10
[3] Building level 10
[2] Building level 11
[2] Building level 12
[3] Building level 11
[2] Building level 13
[3] Building level 12
[2] Building level 14
[3] Building level 13
[3] Building level 14
[1] Building level 5
[4] Building level 5
Creating AMGLevel 
[0] Building level 3
Reconstruction on level 3
[5] Building level 3
[1] Building level 6
[4] Building level 6
[1] Building level 7
[4] Building level 7
[1] Building level 8
[4] Building level 8
[1] Building level 9
[1] Building level 10
[4] Building level 9
[1] Building level 11
[1] Building level 12
[4] Building level 10
[1] Building level 13
[1] Building level 14
[4] Building level 11
[4] Building level 12
[4] Building level 13
[4] Building level 14
Creating AMGLevel 
[0] Building level 4
Reconstruction on level 4
[5] Building level 4
Creating AMGLevel 
[0] Building level 5
Reconstruction on level 5
[5] Building level 5
Creating AMGLevel 
[0] Building level 6
Reconstruction on level 6
[5] Building level 6
Creating AMGLevel 
[0] Building level 7
Reconstruction on level 7
[5] Building level 7
Creating AMGLevel 
[0] Building level 8
Reconstruction on level 8
[5] Building level 8
Creating AMGLevel 
[0] Building level 9
Reconstruction on level 9
Creating AMGLevel 
[0] Building level 10
Reconstruction on level 10
[5] Building level 9
Creating AMGLevel 
[0] Building level 11
Reconstruction on level 11
Creating AMGLevel 
[0] Building level 12
Reconstruction on level 12
Creating AMGLevel 
[0] Building level 13
Reconstruction on level 13
[5] Building level 10
Creating AMGLevel 
[0] Building level 14
Reconstruction on level 14
Creating AMGLevel 
14 Level construction complete
[5] Building level 11
[5] Building level 12
[5] Building level 13
[5] Building level 14
initial dot_x = 7.28592e+09
Iter #1 residual = 0.0268042
Iter #2 residual = 0.0224923
Iter #3 residual = 0.0169119
Iter #4 residual = 0.016477
Iter #5 residual = 0.0190064
Iter #6 residual = 0.019119
Iter #7 residual = 0.0568208
Iter #8 residual = 0.0313583
Iter #9 residual = 0.0199244
Iter #10 residual = 0.0298069
Iter #11 residual = 0.0192156
Iter #12 residual = 0.0110881
Iter #13 residual = 0.00860494
Iter #14 residual = 0.00491197
Iter #15 residual = 0.00585848
Iter #16 residual = 0.0048194
Iter #17 residual = 0.00637319
Iter #18 residual = 0.00456613
Iter #19 residual = 0.00662118
Iter #20 residual = 0.00474925
Iter #21 residual = 0.0180872
Iter #22 residual = 0.0113816
Iter #23 residual = 0.00739081
Iter #24 residual = 0.0163474
Iter #25 residual = 0.0113666
Iter #26 residual = 0.00332815
Iter #27 residual = 0.00384584
Iter #28 residual = 0.0026554
Iter #29 residual = 0.00636738
Iter #30 residual = 0.0039349
Iter #31 residual = 0.00584592
Iter #32 residual = 0.00500469
Iter #33 residual = 0.00519694
Iter #34 residual = 0.00301811
Iter #35 residual = 0.00456345
Iter #36 residual = 0.0029907
Iter #37 residual = 0.00357244
Iter #38 residual = 0.00599928
Iter #39 residual = 0.00326525
Iter #40 residual = 0.00712804
Iter #41 residual = 0.00435964
Iter #42 residual = 0.00308816
Iter #43 residual = 0.00334719
Iter #44 residual = 0.00258616
Iter #45 residual = 0.00414023
Iter #46 residual = 0.0041669
Iter #47 residual = 0.00136009
Iter #48 residual = 0.00417533
Iter #49 residual = 0.00256146
Iter #50 residual = 0.00188262
GPU: 50 iters: 10.3445 s: 2.1082 GB/s
GPUAMG:  Solving for pd, Initial residual = 0.0105436, Final residual = 0.00147078, No Iterations 50
[0] Building level 0
[4] Building level 0
[3] Building level 0
[1] Building level 0
[5] Building level 0
[2] Building level 0
[0] Building level 1
[5] Building level 1
[3] Building level 1
[1] Building level 1
[2] Building level 1
[4] Building level 1
[1] Building level 2
[2] Building level 2
[3] Building level 2
[0] Building level 2
[5] Building level 2
[4] Building level 2
[3] Building level 3
[1] Building level 3
[2] Building level 3
[5] Building level 3
[0] Building level 3
[4] Building level 3
[3] Building level 4
[1] Building level 4
[2] Building level 4
[5] Building level 4
[4] Building level 4
[0] Building level 4
[3] Building level 5
[1] Building level 5
[2] Building level 5
[5] Building level 5
[4] Building level 5
[0] Building level 5
[3] Building level 6
[1] Building level 6
[2] Building level 6
[3] Building level 7
[5] Building level 6
[3] Building level 8
[1] Building level 7
[4] Building level 6
[3] Building level 9
[0] Building level 6
[3] Building level 10
[2] Building level 7
[3] Building level 11
[3] Building level 12
[3] Building level 13
[3] Building level 14
[1] Building level 8
[5] Building level 7
[1] Building level 9
[2] Building level 8
[1] Building level 10
[1] Building level 11
[1] Building level 12
[4] Building level 7
[1] Building level 13
[5] Building level 8
[1] Building level 14
[2] Building level 9
[0] Building level 7
[2] Building level 10
[2] Building level 11
[2] Building level 12
[5] Building level 9
[2] Building level 13
[2] Building level 14
[5] Building level 10
[4] Building level 8
[5] Building level 11
[5] Building level 12
[5] Building level 13
[5] Building level 14
[0] Building level 8
[4] Building level 9
[4] Building level 10
[0] Building level 9
[4] Building level 11
[4] Building level 12
[4] Building level 13
[4] Building level 14
[0] Building level 10
[0] Building level 11
[0] Building level 12
[0] Building level 13
[0] Building level 14
14 Level construction complete
initial dot_x = 1.67258e+09
Iter #1 residual = 0.013044
Iter #2 residual = 0.0119866
Iter #3 residual = 0.00611258
Iter #4 residual = 0.00978655
Iter #5 residual = 0.00703241
Iter #6 residual = 0.0157079
Iter #7 residual = 0.0200959
Iter #8 residual = 0.0111621
Iter #9 residual = 0.00467068
Iter #10 residual = 0.00639722
Iter #11 residual = 0.00512901
Iter #12 residual = 0.00492428
Iter #13 residual = 0.00607145
Iter #14 residual = 0.00473761
Iter #15 residual = 0.00636282
Iter #16 residual = 0.0180157
Iter #17 residual = 0.0102761
Iter #18 residual = 0.00812257
Iter #19 residual = 0.00531695
Iter #20 residual = 0.00579956
Iter #21 residual = 0.00875269
Iter #22 residual = 0.0056208
Iter #23 residual = 0.0104643
Iter #24 residual = 0.00562971
Iter #25 residual = 0.00533106
Iter #26 residual = 0.00528829
Iter #27 residual = 0.00260949
Iter #28 residual = 0.00410823
Iter #29 residual = 0.0030764
Iter #30 residual = 0.0055667
Iter #31 residual = 0.00363066
Iter #32 residual = 0.0105432
Iter #33 residual = 0.00499362
Iter #34 residual = 0.0104759
Iter #35 residual = 0.00664929
Iter #36 residual = 0.00912539
Iter #37 residual = 0.00564509
Iter #38 residual = 0.00169552
Iter #39 residual = 0.00407194
Iter #40 residual = 0.00330217
Iter #41 residual = 0.00300953
Iter #42 residual = 0.00248468
Iter #43 residual = 0.00165654
Iter #44 residual = 0.00205679
Iter #45 residual = 0.0016883
Iter #46 residual = 0.00254244
Iter #47 residual = 0.00180622
Iter #48 residual = 0.00420878
Iter #49 residual = 0.00241682
Iter #50 residual = 0.00491884
GPU: 50 iters: 10.4137 s: 2.09419 GB/s
GPUAMG:  Solving for pd, Initial residual = 0.006479, Final residual = 0.00383131, No Iterations 50
[4] Building level 0
[1] Building level 0
[3] Building level 0
[2] Building level 0
[0] Building level 0
[5] Building level 0
[3] Building level 1
[0] Building level 1
[2] Building level 1
[1] Building level 1
[5] Building level 1
[4] Building level 1
[3] Building level 2
[2] Building level 2
[1] Building level 2
[0] Building level 2
[5] Building level 2
[4] Building level 2
[3] Building level 3
[2] Building level 3
[1] Building level 3
[0] Building level 3
[5] Building level 3
[4] Building level 3
[2] Building level 4
[3] Building level 4
[1] Building level 4
[0] Building level 4
[5] Building level 4
[4] Building level 4
[2] Building level 5
[3] Building level 5
[1] Building level 5
[0] Building level 5
[5] Building level 5
[3] Building level 6
[2] Building level 6
[4] Building level 5
[3] Building level 7
[2] Building level 7
[1] Building level 6
[3] Building level 8
[0] Building level 6
[2] Building level 8
[5] Building level 6
[3] Building level 9
[3] Building level 10
[2] Building level 9
[3] Building level 11
[3] Building level 12
[2] Building level 10
[3] Building level 13
[3] Building level 14
[2] Building level 11
[2] Building level 12
[2] Building level 13
[2] Building level 14
[1] Building level 7
[4] Building level 6
[0] Building level 7
[5] Building level 7
[1] Building level 8
[0] Building level 8
[1] Building level 9
[0] Building level 9
[1] Building level 10
[5] Building level 8
[1] Building level 11
[4] Building level 7
[1] Building level 12
[0] Building level 10
[1] Building level 13
[1] Building level 14
[0] Building level 11
[0] Building level 12
[0] Building level 13
[0] Building level 14
14 Level construction complete
[5] Building level 9
[5] Building level 10
[5] Building level 11
[5] Building level 12
[5] Building level 13
[5] Building level 14
[4] Building level 8
[4] Building level 9
[4] Building level 10
[4] Building level 11
[4] Building level 12
[4] Building level 13
[4] Building level 14
initial dot_x = 7.00925e+07
Iter #1 residual = 0.0100468
Iter #2 residual = 0.0133513
Iter #3 residual = 0.00904724
Iter #4 residual = 0.0052335
Iter #5 residual = 0.00537103
Iter #6 residual = 0.00614017
Iter #7 residual = 0.00491381
Iter #8 residual = 0.0083866
Iter #9 residual = 0.00594325
Iter #10 residual = 0.0123033
Iter #11 residual = 0.00820825
Iter #12 residual = 0.0038888
Iter #13 residual = 0.00823241
Iter #14 residual = 0.00592132
Iter #15 residual = 0.00375904
Iter #16 residual = 0.00233038
Iter #17 residual = 0.00283281
Iter #18 residual = 0.00285363
Iter #19 residual = 0.00143116
Iter #20 residual = 0.00192619
Iter #21 residual = 0.00138317
Iter #22 residual = 0.0031809
Iter #23 residual = 0.00198939
Iter #24 residual = 0.00165191
Iter #25 residual = 0.0011609
Iter #26 residual = 0.00125342
Iter #27 residual = 0.000955373
Iter #28 residual = 0.00130199
Iter #29 residual = 0.00134119
Iter #30 residual = 0.00153333
Iter #31 residual = 0.00127234
Iter #32 residual = 0.00104354
Iter #33 residual = 0.00193906
Iter #34 residual = 0.00102811
Iter #35 residual = 0.00122379
Iter #36 residual = 0.00105542
Iter #37 residual = 0.000789697
Iter #38 residual = 0.000609256
Iter #39 residual = 0.00176947
Iter #40 residual = 0.00114353
Iter #41 residual = 0.000636901
Iter #42 residual = 0.000796875
Iter #43 residual = 0.000469953
Iter #44 residual = 0.000438076
Iter #45 residual = 0.000375307
Iter #46 residual = 0.000293386
Iter #47 residual = 0.000165877
Iter #48 residual = 0.000280673
Iter #49 residual = 0.000206912
Iter #50 residual = 0.000671426
GPU: 50 iters: 10.3714 s: 2.10273 GB/s
GPUAMG:  Solving for pd, Initial residual = 0.00950407, Final residual = 0.000371399, No Iterations 50
time step continuity errors : sum local = 4.03003e-08, global = -2.23291e-08, cumulative = -6.35473e-08
ExecutionTime = 203.24 s  ClockTime = 223 s

Courant Number mean: 1.63853e-05 max: 0.132872 velocity magnitude: 1.03806
Time = 0.004

MULES: Solving for alpha1
Liquid phase volume fraction = 0.00275427  Min(alpha1) = -1.38636e-30  Max(alpha1) = 1
MULES: Solving for alpha1
Liquid phase volume fraction = 0.00275428  Min(alpha1) = -3.11126e-30  Max(alpha1) = 1
[1] Building level 0
[4] Building level 0
[5] Building level 0
[2] Building level 0
[0] Building level 0
[3] Building level 0
[5] Building level 1
[3] Building level 1
[0] Building level 1
Reconstruction on level 1
[1] Building level 1
[2] Building level 1
[4] Building level 1
[3] Building level 2
[2] Building level 2
[4] Building level 2
[3] Building level 3
[2] Building level 3
[3] Building level 4
[2] Building level 4
[4] Building level 3
[3] Building level 5
[2] Building level 5
Creating AMGLevel 
[0] Building level 2
Reconstruction on level 2
[5] Building level 2
[1] Building level 2
[2] Building level 6
[3] Building level 6
[4] Building level 4
[2] Building level 7
[3] Building level 7
[3] Building level 8
[2] Building level 8
[2] Building level 9
[3] Building level 9
[2] Building level 10
[3] Building level 10
[3] Building level 11
[2] Building level 11
[3] Building level 12
[2] Building level 12
[3] Building level 13
[2] Building level 13
[3] Building level 14
[2] Building level 14
[4] Building level 5
Creating AMGLevel 
[0] Building level 3
Reconstruction on level 3
[5] Building level 3
[1] Building level 3
[4] Building level 6
[4] Building level 7
[4] Building level 8
[4] Building level 9
[4] Building level 10
[4] Building level 11
[4] Building level 12
[4] Building level 13
[4] Building level 14
Creating AMGLevel 
[0] Building level 4
Reconstruction on level 4
[5] Building level 4
[1] Building level 4
Creating AMGLevel 
[0] Building level 5
Reconstruction on level 5
[5] Building level 5
[1] Building level 5
Creating AMGLevel 
[0] Building level 6
Reconstruction on level 6
[5] Building level 6
[1] Building level 6
Creating AMGLevel 
[0] Building level 7
Reconstruction on level 7
[5] Building level 7
[1] Building level 7
Creating AMGLevel 
[0] Building level 8
Reconstruction on level 8
[5] Building level 8
Creating AMGLevel 
[0] Building level 9
Reconstruction on level 9
[1] Building level 8
Creating AMGLevel 
[0] Building level 10
Reconstruction on level 10
[5] Building level 9
Creating AMGLevel 
[0] Building level 11
Reconstruction on level 11
Creating AMGLevel 
[0] Building level 12
Reconstruction on level 12
[1] Building level 9
[5] Building level 10
Creating AMGLevel 
[0] Building level 13
Reconstruction on level 13
Creating AMGLevel 
[0] Building level 14
Reconstruction on level 14
[5] Building level 11
Creating AMGLevel 
14 Level construction complete
[5] Building level 12
[1] Building level 10
[5] Building level 13
[1] Building level 11
[5] Building level 14
[1] Building level 12
[1] Building level 13
[1] Building level 14
initial dot_x = 2.19072e+09
Iter #1 residual = 0.0232859
Iter #2 residual = 0.0157857
Iter #3 residual = 0.0142674
Iter #4 residual = 0.0116188
Iter #5 residual = 0.0436437
Iter #6 residual = 0.0265241
Iter #7 residual = 0.0152468
Iter #8 residual = 0.0225953
Iter #9 residual = 0.0140589
Iter #10 residual = 0.00828773
Iter #11 residual = 0.0103655
Iter #12 residual = 0.00580958
Iter #13 residual = 0.00415682
Iter #14 residual = 0.00399894
Iter #15 residual = 0.00270719
Iter #16 residual = 0.00162799
Iter #17 residual = 0.00150544
Iter #18 residual = 0.00078349
Iter #19 residual = 0.000873405
Iter #20 residual = 0.000719131
GPU: 20 iters: 4.25183 s: 2.05166 GB/s
GPUAMG:  Solving for pd, Initial residual = 0.0122542, Final residual = 0.00046694, No Iterations 20
[1] Building level 0
[0] Building level 0
[3] Building level 0
[4] Building level 0
[5] Building level 0
[2] Building level 0
[1] Building level 1
[0] Building level 1
[3] Building level 1
[5] Building level 1
[2] Building level 1
[4] Building level 1
[0] Building level 2
[2] Building level 2
[3] Building level 2
[1] Building level 2
[5] Building level 2
[4] Building level 2
[3] Building level 3
[0] Building level 3
[2] Building level 3
[5] Building level 3
[1] Building level 3
[4] Building level 3
[2] Building level 4
[0] Building level 4
[3] Building level 4
[5] Building level 4
[1] Building level 4
[4] Building level 4
[2] Building level 5
[0] Building level 5
[3] Building level 5
[5] Building level 5
[1] Building level 5
[2] Building level 6
[4] Building level 5
[0] Building level 6
[3] Building level 6
[2] Building level 7
[5] Building level 6
[1] Building level 6
[2] Building level 8
[3] Building level 7
[0] Building level 7
[2] Building level 9
[2] Building level 10
[2] Building level 11
[4] Building level 6
[2] Building level 12
[5] Building level 7
[2] Building level 13
[2] Building level 14
[3] Building level 8
[1] Building level 7
[0] Building level 8
[3] Building level 9
[0] Building level 9
[5] Building level 8
[3] Building level 10
[0] Building level 10
[3] Building level 11
[3] Building level 12
[0] Building level 11
[1] Building level 8
[3] Building level 13
[3] Building level 14
[0] Building level 12
[0] Building level 13
[0] Building level 14
14 Level construction complete
[5] Building level 9
[4] Building level 7
[5] Building level 10
[1] Building level 9
[5] Building level 11
[5] Building level 12
[5] Building level 13
[5] Building level 14
[1] Building level 10
[1] Building level 11
[1] Building level 12
[1] Building level 13
[1] Building level 14
[4] Building level 8
[4] Building level 9
[4] Building level 10
[4] Building level 11
[4] Building level 12
[4] Building level 13
[4] Building level 14
initial dot_x = 2.04681e+09
Iter #1 residual = 0.0082576
Iter #2 residual = 0.0178351
Iter #3 residual = 0.00950305
Iter #4 residual = 0.0064607
Iter #5 residual = 0.00765034
Iter #6 residual = 0.00579813
Iter #7 residual = 0.00274045
Iter #8 residual = 0.00287003
Iter #9 residual = 0.00203613
Iter #10 residual = 0.009161
Iter #11 residual = 0.00608501
Iter #12 residual = 0.00321016
Iter #13 residual = 0.0019071
Iter #14 residual = 0.00169526
Iter #15 residual = 0.000942325
Iter #16 residual = 0.00131385
Iter #17 residual = 0.000991866
Iter #18 residual = 0.00395061
Iter #19 residual = 0.00257923
Iter #20 residual = 0.0014232
Iter #21 residual = 0.00160735
Iter #22 residual = 0.00135147
Iter #23 residual = 0.000595127
Iter #24 residual = 0.000376273
Iter #25 residual = 0.000866865
Iter #26 residual = 0.000517616
GPU: 26 iters: 5.4625 s: 2.07603 GB/s
GPUAMG:  Solving for pd, Initial residual = 0.00745026, Final residual = 0.000308561, No Iterations 26
[5] Building level 0
[3] Building level 0
[1] Building level 0
[0] Building level 0
[2] Building level 0
[4] Building level 0
[0] Building level 1
[2] Building level 1
[3] Building level 1
[5] Building level 1
[1] Building level 1
[4] Building level 1
[3] Building level 2
[2] Building level 2
[0] Building level 2
[1] Building level 2
[5] Building level 2
[4] Building level 2
[3] Building level 3
[2] Building level 3
[0] Building level 3
[5] Building level 3
[1] Building level 3
[4] Building level 3
[2] Building level 4
[3] Building level 4
[0] Building level 4
[5] Building level 4
[1] Building level 4
[2] Building level 5
[4] Building level 4
[3] Building level 5
[0] Building level 5
[5] Building level 5
[2] Building level 6
[1] Building level 5
[2] Building level 7
[0] Building level 6
[3] Building level 6
[4] Building level 5
[2] Building level 8
[2] Building level 9
[5] Building level 6
[2] Building level 10
[2] Building level 11
[2] Building level 12
[2] Building level 13
[2] Building level 14
[0] Building level 7
[3] Building level 7
[1] Building level 6
[0] Building level 8
[3] Building level 8
[5] Building level 7
[0] Building level 9
[3] Building level 9
[0] Building level 10
[0] Building level 11
[3] Building level 10
[0] Building level 12
[0] Building level 13
[3] Building level 11
[0] Building level 14
14 Level construction complete
[3] Building level 12
[3] Building level 13
[5] Building level 8
[3] Building level 14
[1] Building level 7
[4] Building level 6
[5] Building level 9
[5] Building level 10
[5] Building level 11
[5] Building level 12
[5] Building level 13
[5] Building level 14
[1] Building level 8
[1] Building level 9
[1] Building level 10
[4] Building level 7
[1] Building level 11
[1] Building level 12
[1] Building level 13
[1] Building level 14
[4] Building level 8
[4] Building level 9
[4] Building level 10
[4] Building level 11
[4] Building level 12
[4] Building level 13
[4] Building level 14
initial dot_x = 2.00734e+08
Iter #1 residual = 0.0118468
Iter #2 residual = 0.0178214
Iter #3 residual = 0.0059191
Iter #4 residual = 0.00347183
Iter #5 residual = 0.00195567
Iter #6 residual = 0.00139927
Iter #7 residual = 0.0023672
Iter #8 residual = 0.00174287
Iter #9 residual = 0.00210176
Iter #10 residual = 0.00130561
Iter #11 residual = 0.00371217
Iter #12 residual = 0.00311876
Iter #13 residual = 0.000797107
Iter #14 residual = 0.00186242
Iter #15 residual = 0.00119761
Iter #16 residual = 0.00138156
Iter #17 residual = 0.00126957
Iter #18 residual = 0.000874176
Iter #19 residual = 0.000541743
Iter #20 residual = 0.00187338
Iter #21 residual = 0.00114345
Iter #22 residual = 0.000797856
Iter #23 residual = 0.00076233
Iter #24 residual = 0.000739851
Iter #25 residual = 0.000460877
Iter #26 residual = 0.000425624
Iter #27 residual = 0.000571827
Iter #28 residual = 0.00039473
Iter #29 residual = 0.000823173
Iter #30 residual = 0.000521956
Iter #31 residual = 0.001095
Iter #32 residual = 0.000990197
Iter #33 residual = 0.000626425
Iter #34 residual = 0.000769871
Iter #35 residual = 0.000351127
Iter #36 residual = 0.000367781
Iter #37 residual = 0.000212872
Iter #38 residual = 0.000122233
Iter #39 residual = 0.000320363
Iter #40 residual = 0.000162095
Iter #41 residual = 0.000114212
Iter #42 residual = 0.000128126
Iter #43 residual = 9.59189e-05
Iter #44 residual = 0.000128789
Iter #45 residual = 8.22806e-05
Iter #46 residual = 4.30258e-05
Iter #47 residual = 3.03592e-05
Iter #48 residual = 3.55588e-05
Iter #49 residual = 1.73901e-05
Iter #50 residual = 1.38095e-05
GPU: 50 iters: 10.2819 s: 2.12104 GB/s
GPUAMG:  Solving for pd, Initial residual = 0.00699094, Final residual = 9.51955e-06, No Iterations 50
time step continuity errors : sum local = 1.09463e-08, global = -1.05232e-08, cumulative = -7.40705e-08
ExecutionTime = 258.66 s  ClockTime = 280 s

Courant Number mean: 2.02824e-05 max: 0.0720612 velocity magnitude: 0.562978
Time = 0.005

MULES: Solving for alpha1
Liquid phase volume fraction = 0.00275429  Min(alpha1) = -2.30922e-31  Max(alpha1) = 1
MULES: Solving for alpha1
Liquid phase volume fraction = 0.00275429  Min(alpha1) = -2.22849e-32  Max(alpha1) = 1
[5] Building level 0
[0] Building level 0
[4] Building level 0
[1] Building level 0
[2] Building level 0
[3] Building level 0
[5] Building level 1
[0] Building level 1
Reconstruction on level 1
[1] Building level 1
[3] Building level 1
[2] Building level 1
[4] Building level 1
[3] Building level 2
[2] Building level 2
[4] Building level 2
[3] Building level 3
[2] Building level 3
[2] Building level 4
[3] Building level 4
[4] Building level 3
[2] Building level 5
[3] Building level 5
Creating AMGLevel 
[0] Building level 2
Reconstruction on level 2
[1] Building level 2
[5] Building level 2
[2] Building level 6
[3] Building level 6
[4] Building level 4
[2] Building level 7
[3] Building level 7
[2] Building level 8
[3] Building level 8
[2] Building level 9
[3] Building level 9
[2] Building level 10
[3] Building level 10
[2] Building level 11
[2] Building level 12
[3] Building level 11
[2] Building level 13
[2] Building level 14
[3] Building level 12
[3] Building level 13
[3] Building level 14
[4] Building level 5
Creating AMGLevel 
[0] Building level 3
Reconstruction on level 3
[1] Building level 3
[5] Building level 3
[4] Building level 6
[4] Building level 7
[4] Building level 8
[4] Building level 9
[4] Building level 10
[4] Building level 11
[4] Building level 12
[4] Building level 13
[4] Building level 14
Creating AMGLevel 
[0] Building level 4
Reconstruction on level 4
[1] Building level 4
[5] Building level 4
Creating AMGLevel 
[0] Building level 5
Reconstruction on level 5
[5] Building level 5
[1] Building level 5
Creating AMGLevel 
[0] Building level 6
Reconstruction on level 6
[5] Building level 6
[1] Building level 6
Creating AMGLevel 
[0] Building level 7
Reconstruction on level 7
[5] Building level 7
[1] Building level 7
Creating AMGLevel 
[0] Building level 8
Reconstruction on level 8
[5] Building level 8
[1] Building level 8
Creating AMGLevel 
[0] Building level 9
Reconstruction on level 9
[5] Building level 9
[1] Building level 9
Creating AMGLevel 
[0] Building level 10
Reconstruction on level 10
[5] Building level 10
Creating AMGLevel 
[0] Building level 11
Reconstruction on level 11
[1] Building level 10
[5] Building level 11
Creating AMGLevel 
[0] Building level 12
Reconstruction on level 12
[5] Building level 12
[1] Building level 11
Creating AMGLevel 
[0] Building level 13
Reconstruction on level 13
[5] Building level 13
Creating AMGLevel 
[0] Building level 14
Reconstruction on level 14
[1] Building level 12
[5] Building level 14
Creating AMGLevel 
14 Level construction complete
[1] Building level 13
[1] Building level 14
initial dot_x = 3.2173e+09
Iter #1 residual = 0.0236527
Iter #2 residual = 0.0531664
Iter #3 residual = 0.0332884
Iter #4 residual = 0.02189
Iter #5 residual = 0.016338
Iter #6 residual = 0.0104281
Iter #7 residual = 0.00849965
Iter #8 residual = 0.0082384
Iter #9 residual = 0.00504473
Iter #10 residual = 0.00299632
Iter #11 residual = 0.00297239
Iter #12 residual = 0.0020184
Iter #13 residual = 0.00543903
Iter #14 residual = 0.00301811
Iter #15 residual = 0.00277954
Iter #16 residual = 0.00223041
Iter #17 residual = 0.00158891
Iter #18 residual = 0.00144589
Iter #19 residual = 0.00178148
Iter #20 residual = 0.00126644
Iter #21 residual = 0.000918982
Iter #22 residual = 0.00165578
Iter #23 residual = 0.00117514
Iter #24 residual = 0.00479464
Iter #25 residual = 0.00300642
Iter #26 residual = 0.00149282
Iter #27 residual = 0.0012018
Iter #28 residual = 0.00118472
GPU: 28 iters: 6.04 s: 2.02196 GB/s
GPUAMG:  Solving for pd, Initial residual = 0.0102437, Final residual = 0.000508146, No Iterations 28
[0] Building level 0
[4] Building level 0
[5] Building level 0
[3] Building level 0
[2] Building level 0
[1] Building level 0
[3] Building level 1
[2] Building level 1
[5] Building level 1
[1] Building level 1
[0] Building level 1
[4] Building level 1
[3] Building level 2
[2] Building level 2
[5] Building level 2
[0] Building level 2
[1] Building level 2
[4] Building level 2
[3] Building level 3
[2] Building level 3
[5] Building level 3
[0] Building level 3
[1] Building level 3
[4] Building level 3
[3] Building level 4
[2] Building level 4
[5] Building level 4
[0] Building level 4
[1] Building level 4
[4] Building level 4
[3] Building level 5
[2] Building level 5
[5] Building level 5
[3] Building level 6
[2] Building level 6
[4] Building level 5
[0] Building level 5
[1] Building level 5
[3] Building level 7
[2] Building level 7
[3] Building level 8
[5] Building level 6
[3] Building level 9
[2] Building level 8
[3] Building level 10
[3] Building level 11
[3] Building level 12
[3] Building level 13
[3] Building level 14
[2] Building level 9
[2] Building level 10
[2] Building level 11
[2] Building level 12
[2] Building level 13
[2] Building level 14
[4] Building level 6
[5] Building level 7
[0] Building level 6
[1] Building level 6
[5] Building level 8
[5] Building level 9
[4] Building level 7
[5] Building level 10
[5] Building level 11
[5] Building level 12
[5] Building level 13
[1] Building level 7
[5] Building level 14
[0] Building level 7
[4] Building level 8
[1] Building level 8
[0] Building level 8
[4] Building level 9
[4] Building level 10
[1] Building level 9
[0] Building level 9
[4] Building level 11
[4] Building level 12
[4] Building level 13
[1] Building level 10
[4] Building level 14
[0] Building level 10
[1] Building level 11
[1] Building level 12
[0] Building level 11
[1] Building level 13
[1] Building level 14
[0] Building level 12
[0] Building level 13
[0] Building level 14
14 Level construction complete
initial dot_x = 2.33426e+09
Iter #1 residual = 0.00291
Iter #2 residual = 0.0039387
Iter #3 residual = 0.00243749
Iter #4 residual = 0.00210725
Iter #5 residual = 0.00154888
Iter #6 residual = 0.00191295
Iter #7 residual = 0.00119879
Iter #8 residual = 0.00150216
Iter #9 residual = 0.00161748
Iter #10 residual = 0.00149087
Iter #11 residual = 0.00150616
Iter #12 residual = 0.00303954
Iter #13 residual = 0.00181177
Iter #14 residual = 0.00163488
Iter #15 residual = 0.00113966
Iter #16 residual = 0.00123269
Iter #17 residual = 0.000970308
Iter #18 residual = 0.00127922
Iter #19 residual = 0.000817963
Iter #20 residual = 0.00207125
Iter #21 residual = 0.00175188
Iter #22 residual = 0.00096636
Iter #23 residual = 0.000642429
Iter #24 residual = 0.000487938
Iter #25 residual = 0.000575983
Iter #26 residual = 0.00167567
Iter #27 residual = 0.00104169
Iter #28 residual = 0.000836756
Iter #29 residual = 0.000722964
Iter #30 residual = 0.00113371
Iter #31 residual = 0.000595845
Iter #32 residual = 0.0016129
Iter #33 residual = 0.00153745
Iter #34 residual = 0.000503614
GPU: 34 iters: 7.2967 s: 2.03238 GB/s
GPUAMG:  Solving for pd, Initial residual = 0.00686419, Final residual = 0.000234908, No Iterations 34
[2] Building level 0
[1] Building level 0
[5] Building level 0
[0] Building level 0
[4] Building level 0
[3] Building level 0
[3] Building level 1
[5] Building level 1
[2] Building level 1
[0] Building level 1
[1] Building level 1
[4] Building level 1
[2] Building level 2
[3] Building level 2
[5] Building level 2
[0] Building level 2
[1] Building level 2
[4] Building level 2
[2] Building level 3
[3] Building level 3
[5] Building level 3
[0] Building level 3
[1] Building level 3
[4] Building level 3
[2] Building level 4
[3] Building level 4
[5] Building level 4
[0] Building level 4
[1] Building level 4
[4] Building level 4
[2] Building level 5
[3] Building level 5
[2] Building level 6
[5] Building level 5
[3] Building level 6
[0] Building level 5
[2] Building level 7
[1] Building level 5
[4] Building level 5
[2] Building level 8
[3] Building level 7
[5] Building level 6
[2] Building level 9
[2] Building level 10
[2] Building level 11
[2] Building level 12
[2] Building level 13
[2] Building level 14
[3] Building level 8
[3] Building level 9
[3] Building level 10
[3] Building level 11
[3] Building level 12
[3] Building level 13
[3] Building level 14
[5] Building level 7
[0] Building level 6
[1] Building level 6
[5] Building level 8
[4] Building level 6
[5] Building level 9
[5] Building level 10
[0] Building level 7
[5] Building level 11
[5] Building level 12
[5] Building level 13
[5] Building level 14
[1] Building level 7
[4] Building level 7
[0] Building level 8
[0] Building level 9
[1] Building level 8
[0] Building level 10
[4] Building level 8
[0] Building level 11
[0] Building level 12
[0] Building level 13
[1] Building level 9
[0] Building level 14
14 Level construction complete
[1] Building level 10
[4] Building level 9
[1] Building level 11
[1] Building level 12
[4] Building level 10
[1] Building level 13
[1] Building level 14
[4] Building level 11
[4] Building level 12
[4] Building level 13
[4] Building level 14
initial dot_x = 1.59765e+09
Iter #1 residual = 0.0039523
Iter #2 residual = 0.00816493
Iter #3 residual = 0.00454197
Iter #4 residual = 0.00312564
Iter #5 residual = 0.00221661
Iter #6 residual = 0.00160726
Iter #7 residual = 0.000507706
GMRES:  Solving for topLevelCorr, Initial residual = 0.88889, Final residual = 0.942972, No Iterations 200
Iter #8 residual = 0.000190153
GMRES:  Solving for topLevelCorr, Initial residual = 0.935497, Final residual = 1.21439, No Iterations 200
Iter #9 residual = 0.000351706
Iter #10 residual = 0.00112424
Iter #11 residual = 0.000821056
Iter #12 residual = 0.000746104
Iter #13 residual = 0.00140748
Iter #14 residual = 0.000812432
Iter #15 residual = 0.0017491
Iter #16 residual = 0.00127295
Iter #17 residual = 0.000601801
Iter #18 residual = 0.000843279
Iter #19 residual = 0.00046838
Iter #20 residual = 0.000349599
Iter #21 residual = 0.000170212
Iter #22 residual = 0.000150531
Iter #23 residual = 9.29983e-05
Iter #24 residual = 0.000113141
Iter #25 residual = 7.08519e-05
Iter #26 residual = 0.000162355
Iter #27 residual = 8.99591e-05
Iter #28 residual = 8.91555e-05
Iter #29 residual = 8.02438e-05
Iter #30 residual = 0.000191873
Iter #31 residual = 0.000112659
Iter #32 residual = 6.30493e-05
Iter #33 residual = 6.87796e-05
Iter #34 residual = 5.71848e-05
Iter #35 residual = 0.000138379
Iter #36 residual = 9.34825e-05
Iter #37 residual = 7.34366e-05
Iter #38 residual = 0.000139397
Iter #39 residual = 0.000103624
Iter #40 residual = 3.0464e-05
Iter #41 residual = 4.89697e-05
Iter #42 residual = 2.6537e-05
Iter #43 residual = 2.67063e-05
Iter #44 residual = 2.29794e-05
Iter #45 residual = 2.04878e-05
Iter #46 residual = 1.81684e-05
Iter #47 residual = 1.34673e-05
Iter #48 residual = 4.25921e-05
Iter #49 residual = 2.50022e-05
Iter #50 residual = 1.74604e-05
GPU: 50 iters: 10.5962 s: 2.05813 GB/s
GPUAMG:  Solving for pd, Initial residual = 0.00657256, Final residual = 2.20282e-05, No Iterations 50
time step continuity errors : sum local = 3.51921e-09, global = -2.4782e-09, cumulative = -7.65487e-08
ExecutionTime = 317.88 s  ClockTime = 340 s

Courant Number mean: 2.43958e-05 max: 0.0249251 velocity magnitude: 0.27044
Time = 0.006

MULES: Solving for alpha1
Liquid phase volume fraction = 0.00275429  Min(alpha1) = -3.26772e-30  Max(alpha1) = 1
MULES: Solving for alpha1
Liquid phase volume fraction = 0.00275429  Min(alpha1) = -1.53119e-29  Max(alpha1) = 1
[0] Building level 0
[5] Building level 0
[2] Building level 0
[3] Building level 0
[4] Building level 0
[1] Building level 0
[5] Building level 1
[0] Building level 1
Reconstruction on level 1
[1] Building level 1
[3] Building level 1
[2] Building level 1
[4] Building level 1
[3] Building level 2
[2] Building level 2
[3] Building level 3
[2] Building level 3
[2] Building level 4
[3] Building level 4
[2] Building level 5
[3] Building level 5
Creating AMGLevel 
[0] Building level 2
Reconstruction on level 2
[4] Building level 2
[1] Building level 2
[5] Building level 2
[3] Building level 6
[2] Building level 6
[2] Building level 7
[3] Building level 7
[2] Building level 8
[3] Building level 8
[2] Building level 9
[3] Building level 9
[3] Building level 10
[2] Building level 10
[3] Building level 11
[2] Building level 11
[2] Building level 12
[3] Building level 12
[3] Building level 13
[2] Building level 13
[2] Building level 14
[3] Building level 14
Creating AMGLevel 
[0] Building level 3
Reconstruction on level 3
[4] Building level 3
[1] Building level 3
[5] Building level 3
Creating AMGLevel 
[0] Building level 4
Reconstruction on level 4
[4] Building level 4
[1] Building level 4
[5] Building level 4
Creating AMGLevel 
[0] Building level 5
Reconstruction on level 5
[4] Building level 5
[1] Building level 5
[5] Building level 5
Creating AMGLevel 
[0] Building level 6
Reconstruction on level 6
[4] Building level 6
[1] Building level 6
[5] Building level 6
Creating AMGLevel 
[0] Building level 7
Reconstruction on level 7
[4] Building level 7
[1] Building level 7
[5] Building level 7
Creating AMGLevel 
[0] Building level 8
Reconstruction on level 8
[4] Building level 8
[1] Building level 8
Creating AMGLevel 
[0] Building level 9
Reconstruction on level 9
[4] Building level 9
[5] Building level 8
Creating AMGLevel 
[0] Building level 10
Reconstruction on level 10
[4] Building level 10
[1] Building level 9
Creating AMGLevel 
[0] Building level 11
Reconstruction on level 11
[4] Building level 11
Creating AMGLevel 
[0] Building level 12
Reconstruction on level 12
[5] Building level 9
[4] Building level 12
Creating AMGLevel 
[0] Building level 13
Reconstruction on level 13
[1] Building level 10
[4] Building level 13
Creating AMGLevel 
[0] Building level 14
Reconstruction on level 14
[4] Building level 14
Creating AMGLevel 
14 Level construction complete
[1] Building level 11
[5] Building level 10
[1] Building level 12
[5] Building level 11
[1] Building level 13
[1] Building level 14
[5] Building level 12
[5] Building level 13
[5] Building level 14
initial dot_x = 2.89643e+09
Iter #1 residual = 0.022008
Iter #2 residual = 0.031839
Iter #3 residual = 0.0200823
Iter #4 residual = 0.0200849
Iter #5 residual = 0.014831
Iter #6 residual = 0.00933265
Iter #7 residual = 0.00924817
Iter #8 residual = 0.00956056
Iter #9 residual = 0.00777436
Iter #10 residual = 0.00611294
Iter #11 residual = 0.00669875
Iter #12 residual = 0.00449302
Iter #13 residual = 0.00489729
Iter #14 residual = 0.0277281
Iter #15 residual = 0.0180871
Iter #16 residual = 0.00999438
Iter #17 residual = 0.00414703
Iter #18 residual = 0.00289881
Iter #19 residual = 0.00274202
Iter #20 residual = 0.0025278
Iter #21 residual = 0.00244624
Iter #22 residual = 0.0025278
Iter #23 residual = 0.00310712
Iter #24 residual = 0.00194941
Iter #25 residual = 0.00468542
Iter #26 residual = 0.00303994
Iter #27 residual = 0.00519878
Iter #28 residual = 0.00471999
Iter #29 residual = 0.00253329
Iter #30 residual = 0.00179106
Iter #31 residual = 0.00216027
Iter #32 residual = 0.00172535
Iter #33 residual = 0.00332963
Iter #34 residual = 0.00228645
Iter #35 residual = 0.00622767
Iter #36 residual = 0.00509092
Iter #37 residual = 0.00387414
Iter #38 residual = 0.00272099
Iter #39 residual = 0.00286907
Iter #40 residual = 0.00325529
Iter #41 residual = 0.00259046
Iter #42 residual = 0.00226514
Iter #43 residual = 0.00186585
Iter #44 residual = 0.00150808
Iter #45 residual = 0.00231914
Iter #46 residual = 0.00166582
Iter #47 residual = 0.00349937
Iter #48 residual = 0.00213962
Iter #49 residual = 0.00441923
Iter #50 residual = 0.00378488
GPU: 50 iters: 10.2612 s: 2.12531 GB/s
GPUAMG:  Solving for pd, Initial residual = 0.0109559, Final residual = 0.00101267, No Iterations 50
[0] Building level 0
[4] Building level 0
[1] Building level 0
[3] Building level 0
[5] Building level 0
[2] Building level 0
[2] Building level 1
[5] Building level 1
[3] Building level 1
[1] Building level 1
[0] Building level 1
[4] Building level 1
[2] Building level 2
[3] Building level 2
[4] Building level 2
[5] Building level 2
[1] Building level 2
[0] Building level 2
[3] Building level 3
[2] Building level 3
[4] Building level 3
[5] Building level 3
[1] Building level 3
[0] Building level 3
[2] Building level 4
[3] Building level 4
[0] Building level 4
[4] Building level 4
[1] Building level 4
[5] Building level 4
[2] Building level 5
[3] Building level 5
[0] Building level 5
[4] Building level 5
[1] Building level 5
[2] Building level 6
[5] Building level 5
[3] Building level 6
[2] Building level 7
[4] Building level 6
[0] Building level 6
[1] Building level 6
[2] Building level 8
[3] Building level 7
[2] Building level 9
[2] Building level 10
[4] Building level 7
[2] Building level 11
[2] Building level 12
[2] Building level 13
[5] Building level 6
[3] Building level 8
[0] Building level 7
[2] Building level 14
[1] Building level 7
[3] Building level 9
[4] Building level 8
[3] Building level 10
[3] Building level 11
[0] Building level 8
[3] Building level 12
[3] Building level 13
[3] Building level 14
[4] Building level 9
[1] Building level 8
[4] Building level 10
[0] Building level 9
[4] Building level 11
[4] Building level 12
[4] Building level 13
[0] Building level 10
[4] Building level 14
[5] Building level 7
[1] Building level 9
[0] Building level 11
[0] Building level 12
[0] Building level 13
[0] Building level 14
14 Level construction complete
[1] Building level 10
[1] Building level 11
[1] Building level 12
[1] Building level 13
[1] Building level 14
[5] Building level 8
[5] Building level 9
[5] Building level 10
[5] Building level 11
[5] Building level 12
[5] Building level 13
[5] Building level 14
initial dot_x = 9.69762e+08
Iter #1 residual = 0.00255996
Iter #2 residual = 0.00135301
Iter #3 residual = 0.000904141
Iter #4 residual = 0.000566359
Iter #5 residual = 0.000403787
GPU: 5 iters: 1.20592 s: 1.80844 GB/s
GPUAMG:  Solving for pd, Initial residual = 0.0069448, Final residual = 0.000279893, No Iterations 5
[5] Building level 0
[2] Building level 0
[4] Building level 0
[1] Building level 0
[3] Building level 0
[0] Building level 0
[5] Building level 1
[2] Building level 1
[0] Building level 1
[3] Building level 1
[1] Building level 1
[4] Building level 1
[2] Building level 2
[3] Building level 2
[4] Building level 2
[5] Building level 2
[0] Building level 2
[1] Building level 2
[3] Building level 3
[2] Building level 3
[4] Building level 3
[5] Building level 3
[0] Building level 3
[1] Building level 3
[2] Building level 4
[3] Building level 4
[0] Building level 4
[4] Building level 4
[1] Building level 4
[5] Building level 4
[2] Building level 5
[3] Building level 5
[0] Building level 5
[4] Building level 5
[2] Building level 6
[1] Building level 5
[5] Building level 5
[3] Building level 6
[2] Building level 7
[0] Building level 6
[4] Building level 6
[2] Building level 8
[3] Building level 7
[2] Building level 9
[2] Building level 10
[2] Building level 11
[2] Building level 12
[2] Building level 13
[2] Building level 14
[0] Building level 7
[3] Building level 8
[1] Building level 6
[5] Building level 6
[4] Building level 7
[3] Building level 9
[0] Building level 8
[3] Building level 10
[3] Building level 11
[3] Building level 12
[3] Building level 13
[3] Building level 14
[4] Building level 8
[0] Building level 9
[0] Building level 10
[4] Building level 9
[0] Building level 11
[0] Building level 12
[0] Building level 13
[1] Building level 7
[0] Building level 14
14 Level construction complete
[4] Building level 10
[5] Building level 7
[4] Building level 11
[4] Building level 12
[4] Building level 13
[4] Building level 14
[1] Building level 8
[5] Building level 8
[1] Building level 9
[5] Building level 9
[1] Building level 10
[5] Building level 10
[1] Building level 11
[5] Building level 11
[1] Building level 12
[5] Building level 12
[1] Building level 13
[5] Building level 13
[1] Building level 14
[5] Building level 14
initial dot_x = 9.65977e+08
Iter #1 residual = 0.00294291
Iter #2 residual = 0.00312814
Iter #3 residual = 0.00191939
Iter #4 residual = 0.00193105
Iter #5 residual = 0.00156768
Iter #6 residual = 0.00242247
Iter #7 residual = 0.00174488
Iter #8 residual = 0.00437472
Iter #9 residual = 0.0024042
Iter #10 residual = 0.0034956
Iter #11 residual = 0.00229807
Iter #12 residual = 0.00299023
Iter #13 residual = 0.00175645
Iter #14 residual = 0.00168844
Iter #15 residual = 0.00111093
Iter #16 residual = 0.00168016
Iter #17 residual = 0.00130359
Iter #18 residual = 0.00179289
Iter #19 residual = 0.00155326
Iter #20 residual = 0.000786327
Iter #21 residual = 0.00117681
Iter #22 residual = 0.000837008
Iter #23 residual = 0.00176024
Iter #24 residual = 0.00118001
Iter #25 residual = 0.00312671
Iter #26 residual = 0.00281929
Iter #27 residual = 0.000908852
Iter #28 residual = 0.000489943
Iter #29 residual = 0.000466827
Iter #30 residual = 0.000333474
Iter #31 residual = 0.000364661
Iter #32 residual = 0.00030525
Iter #33 residual = 0.00034003
Iter #34 residual = 0.000282918
Iter #35 residual = 0.00047856
Iter #36 residual = 0.00037761
Iter #37 residual = 0.000293262
Iter #38 residual = 0.000257012
Iter #39 residual = 0.000269854
Iter #40 residual = 0.00035465
Iter #41 residual = 0.000235589
Iter #42 residual = 0.00033392
Iter #43 residual = 0.000238162
Iter #44 residual = 0.000210565
Iter #45 residual = 0.000337291
Iter #46 residual = 0.000239164
Iter #47 residual = 0.000384937
Iter #48 residual = 0.000273142
Iter #49 residual = 0.000364279
Iter #50 residual = 0.000809737
GPU: 50 iters: 10.273 s: 2.12288 GB/s
GPUAMG:  Solving for pd, Initial residual = 0.00640747, Final residual = 0.000439439, No Iterations 50
time step continuity errors : sum local = 2.15456e-08, global = 1.16221e-11, cumulative = -7.65371e-08
ExecutionTime = 374.93 s  ClockTime = 399 s

Courant Number mean: 2.93909e-05 max: 0.0209521 velocity magnitude: 0.163688
Time = 0.007

MULES: Solving for alpha1
Liquid phase volume fraction = 0.00275429  Min(alpha1) = -4.00446e-31  Max(alpha1) = 1
MULES: Solving for alpha1
Liquid phase volume fraction = 0.00275429  Min(alpha1) = -7.45178e-31  Max(alpha1) = 1
[5] Building level 0
[3] Building level 0
[0] Building level 0
[4] Building level 0
[2] Building level 0
[1] Building level 0
[0] Building level 1
Reconstruction on level 1
[3] Building level 1
[1] Building level 1
[5] Building level 1
[2] Building level 1
[4] Building level 1
[3] Building level 2
[2] Building level 2
[3] Building level 3
[2] Building level 3
[3] Building level 4
[2] Building level 4
[2] Building level 5
[3] Building level 5
Creating AMGLevel 
[0] Building level 2
Reconstruction on level 2
[5] Building level 2
[1] Building level 2
[4] Building level 2
[2] Building level 6
[3] Building level 6
[2] Building level 7
[3] Building level 7
[2] Building level 8
[3] Building level 8
[2] Building level 9
[3] Building level 9
[3] Building level 10
[2] Building level 10
[3] Building level 11
[2] Building level 11
[3] Building level 12
[2] Building level 12
[3] Building level 13
[2] Building level 13
[3] Building level 14
[2] Building level 14
Creating AMGLevel 
[0] Building level 3
Reconstruction on level 3
[5] Building level 3
[1] Building level 3
[4] Building level 3
Creating AMGLevel 
[0] Building level 4
Reconstruction on level 4
[1] Building level 4
[5] Building level 4
[4] Building level 4
Creating AMGLevel 
[0] Building level 5
Reconstruction on level 5
[1] Building level 5
[5] Building level 5
[4] Building level 5
Creating AMGLevel 
[0] Building level 6
Reconstruction on level 6
[1] Building level 6
[5] Building level 6
[4] Building level 6
Creating AMGLevel 
[0] Building level 7
Reconstruction on level 7
[1] Building level 7
[5] Building level 7
Creating AMGLevel 
[0] Building level 8
Reconstruction on level 8
[4] Building level 7
Creating AMGLevel 
[0] Building level 9
Reconstruction on level 9
[1] Building level 8
[5] Building level 8
Creating AMGLevel 
[0] Building level 10
Reconstruction on level 10
[4] Building level 8
Creating AMGLevel 
[0] Building level 11
Reconstruction on level 11
Creating AMGLevel 
[0] Building level 12
Reconstruction on level 12
[1] Building level 9
Creating AMGLevel 
[0] Building level 13
Reconstruction on level 13
[5] Building level 9
Creating AMGLevel 
[0] Building level 14
Reconstruction on level 14
Creating AMGLevel 
14 Level construction complete
[4] Building level 9
[1] Building level 10
[5] Building level 10
[1] Building level 11
[5] Building level 11
[4] Building level 10
[1] Building level 12
[5] Building level 12
[1] Building level 13
[4] Building level 11
[1] Building level 14
[5] Building level 13
[4] Building level 12
[5] Building level 14
[4] Building level 13
[4] Building level 14
initial dot_x = 1.97295e+09
Iter #1 residual = 0.0257563
Iter #2 residual = 0.0140753
Iter #3 residual = 0.0162338
Iter #4 residual = 0.0220589
Iter #5 residual = 0.0114029
Iter #6 residual = 0.018703
Iter #7 residual = 0.0101507
GMRES:  Solving for topLevelCorr, Initial residual = 0.80249, Final residual = 0.824564, No Iterations 200
Iter #8 residual = 0.00257476
GMRES:  Solving for topLevelCorr, Initial residual = 0.902165, Final residual = 0.9944, No Iterations 200
Iter #9 residual = 0.00265188
Iter #10 residual = 0.0135692
Iter #11 residual = 0.0120302
Iter #12 residual = 0.00769294
Iter #13 residual = 0.0106956
Iter #14 residual = 0.0225996
Iter #15 residual = 0.0158849
Iter #16 residual = 0.00471453
Iter #17 residual = 0.0220719
Iter #18 residual = 0.015493
Iter #19 residual = 0.0127728
Iter #20 residual = 0.0266731
Iter #21 residual = 0.0145368
Iter #22 residual = 0.00599663
Iter #23 residual = 0.00332632
Iter #24 residual = 0.011237
Iter #25 residual = 0.00730758
Iter #26 residual = 0.00778944
Iter #27 residual = 0.00463267
Iter #28 residual = 0.00684238
Iter #29 residual = 0.00415512
Iter #30 residual = 0.00306682
Iter #31 residual = 0.0029552
Iter #32 residual = 0.00294536
Iter #33 residual = 0.00198979
Iter #34 residual = 0.00122494
Iter #35 residual = 0.00157641
Iter #36 residual = 0.00104646
Iter #37 residual = 0.00410734
Iter #38 residual = 0.00472714
Iter #39 residual = 0.00170133
Iter #40 residual = 0.00137205
Iter #41 residual = 0.0013209
Iter #42 residual = 0.000863217
Iter #43 residual = 0.000773468
Iter #44 residual = 0.000607944
Iter #45 residual = 0.000974798
Iter #46 residual = 0.000739947
GPU: 46 iters: 9.24478 s: 2.17027 GB/s
GPUAMG:  Solving for pd, Initial residual = 0.0114466, Final residual = 0.000434158, No Iterations 46
[0] Building level 0
[5] Building level 0
[1] Building level 0
[2] Building level 0
[3] Building level 0
[4] Building level 0
[2] Building level 1
[5] Building level 1
[1] Building level 1
[0] Building level 1
[3] Building level 1
[4] Building level 1
[3] Building level 2
[2] Building level 2
[5] Building level 2
[0] Building level 2
[1] Building level 2
[4] Building level 2
[3] Building level 3
[2] Building level 3
[5] Building level 3
[1] Building level 3
[0] Building level 3
[4] Building level 3
[3] Building level 4
[2] Building level 4
[1] Building level 4
[5] Building level 4
[0] Building level 4
[3] Building level 5
[4] Building level 4
[2] Building level 5
[1] Building level 5
[3] Building level 6
[5] Building level 5
[2] Building level 6
[3] Building level 7
[0] Building level 5
[4] Building level 5
[3] Building level 8
[1] Building level 6
[2] Building level 7
[3] Building level 9
[3] Building level 10
[3] Building level 11
[3] Building level 12
[3] Building level 13
[5] Building level 6
[3] Building level 14
[2] Building level 8
[2] Building level 9
[2] Building level 10
[2] Building level 11
[1] Building level 7
[2] Building level 12
[2] Building level 13
[2] Building level 14
[5] Building level 7
[0] Building level 6
[1] Building level 8
[4] Building level 6
[1] Building level 9
[5] Building level 8
[1] Building level 10
[1] Building level 11
[1] Building level 12
[1] Building level 13
[5] Building level 9
[1] Building level 14
[5] Building level 10
[5] Building level 11
[5] Building level 12
[5] Building level 13
[0] Building level 7
[5] Building level 14
[4] Building level 7
[0] Building level 8
[4] Building level 8
[0] Building level 9
[4] Building level 9
[0] Building level 10
[4] Building level 10
[0] Building level 11
[0] Building level 12
[0] Building level 13
[4] Building level 11
[0] Building level 14
14 Level construction complete
[4] Building level 12
[4] Building level 13
[4] Building level 14
initial dot_x = 8.52071e+08
Iter #1 residual = 0.00203918
Iter #2 residual = 0.00103069
Iter #3 residual = 0.0014762
Iter #4 residual = 0.00116394
Iter #5 residual = 0.000751433
Iter #6 residual = 0.000897456
Iter #7 residual = 0.000746297
Iter #8 residual = 0.000727956
Iter #9 residual = 0.000715023
Iter #10 residual = 0.000845658
Iter #11 residual = 0.000696921
Iter #12 residual = 0.000676556
Iter #13 residual = 0.000681846
Iter #14 residual = 0.00104115
Iter #15 residual = 0.000729756
Iter #16 residual = 0.0011485
Iter #17 residual = 0.000691898
GMRES:  Solving for topLevelCorr, Initial residual = 0.877583, Final residual = 0.977834, No Iterations 200
GPU: 17 iters: 3.53594 s: 2.09699 GB/s
GPUAMG:  Solving for pd, Initial residual = 0.00583451, Final residual = 0.00022347, No Iterations 17
[5] Building level 0
[0] Building level 0
[1] Building level 0
[4] Building level 0
[3] Building level 0
[2] Building level 0
[5] Building level 1
[0] Building level 1
[2] Building level 1
[3] Building level 1
[1] Building level 1
[4] Building level 1
[2] Building level 2
[1] Building level 2
[5] Building level 2
[3] Building level 2
[0] Building level 2
[4] Building level 2
[2] Building level 3
[3] Building level 3
[5] Building level 3
[1] Building level 3
[0] Building level 3
[4] Building level 3
[2] Building level 4
[3] Building level 4
[1] Building level 4
[5] Building level 4
[0] Building level 4
[4] Building level 4
[2] Building level 5
[3] Building level 5
[1] Building level 5
[5] Building level 5
[2] Building level 6
[3] Building level 6
[0] Building level 5
[4] Building level 5
[2] Building level 7
[1] Building level 6
[3] Building level 7
[2] Building level 8
[5] Building level 6
[2] Building level 9
[2] Building level 10
[3] Building level 8
[2] Building level 11
[2] Building level 12
[2] Building level 13
[2] Building level 14
[3] Building level 9
[1] Building level 7
[3] Building level 10
[3] Building level 11
[3] Building level 12
[0] Building level 6
[3] Building level 13
[5] Building level 7
[3] Building level 14
[4] Building level 6
[1] Building level 8
[5] Building level 8
[1] Building level 9
[1] Building level 10
[5] Building level 9
[1] Building level 11
[1] Building level 12
[1] Building level 13
[1] Building level 14
[0] Building level 7
[5] Building level 10
[5] Building level 11
[5] Building level 12
[5] Building level 13
[5] Building level 14
[4] Building level 7
[0] Building level 8
[4] Building level 8
[0] Building level 9
[0] Building level 10
[0] Building level 11
[4] Building level 9
[0] Building level 12
[0] Building level 13
[0] Building level 14
14 Level construction complete
[4] Building level 10
[4] Building level 11
[4] Building level 12
[4] Building level 13
[4] Building level 14
initial dot_x = 8.94089e+08
Iter #1 residual = 0.00148499
Iter #2 residual = 0.00433593
Iter #3 residual = 0.00237622
Iter #4 residual = 0.00158419
Iter #5 residual = 0.000421209
Iter #6 residual = 0.00111069
Iter #7 residual = 0.000765589
Iter #8 residual = 0.0021104
Iter #9 residual = 0.00161157
Iter #10 residual = 0.000877558
Iter #11 residual = 0.000982243
Iter #12 residual = 0.000384836
Iter #13 residual = 0.00184393
Iter #14 residual = 0.00101554
Iter #15 residual = 0.00054992
Iter #16 residual = 0.000956858
Iter #17 residual = 0.000584379
Iter #18 residual = 0.000582496
Iter #19 residual = 0.000326836
Iter #20 residual = 0.00036698
Iter #21 residual = 0.000216527
Iter #22 residual = 0.000164191
Iter #23 residual = 0.000294386
Iter #24 residual = 0.000223092
Iter #25 residual = 0.000224565
Iter #26 residual = 0.000115623
Iter #27 residual = 7.27597e-05
Iter #28 residual = 5.40584e-05
Iter #29 residual = 3.11564e-05
Iter #30 residual = 9.32572e-05
Iter #31 residual = 0.000102321
Iter #32 residual = 4.61988e-05
Iter #33 residual = 2.19057e-05
Iter #34 residual = 2.37656e-05
Iter #35 residual = 2.12446e-05
Iter #36 residual = 3.67069e-05
Iter #37 residual = 2.28263e-05
Iter #38 residual = 9.6314e-05
Iter #39 residual = 8.40379e-05
Iter #40 residual = 1.8234e-05
Iter #41 residual = 1.12007e-05
Iter #42 residual = 1.33739e-05
Iter #43 residual = 4.26723e-05
Iter #44 residual = 2.57102e-05
Iter #45 residual = 2.07001e-05
Iter #46 residual = 1.67633e-05
Iter #47 residual = 1.20684e-05
Iter #48 residual = 9.97141e-06
Iter #49 residual = 5.42213e-06
Iter #50 residual = 4.96741e-06
GPU: 50 iters: 9.97255 s: 2.18683 GB/s
GPUAMG:  Solving for pd, Initial residual = 0.00539477, Final residual = 3.82017e-06, No Iterations 50
time step continuity errors : sum local = 3.15538e-10, global = 1.41855e-10, cumulative = -7.63952e-08
ExecutionTime = 432.93 s  ClockTime = 458 s

Courant Number mean: 3.44013e-05 max: 0.00834915 velocity magnitude: 0.130456
Time = 0.008

MULES: Solving for alpha1
Liquid phase volume fraction = 0.00275429  Min(alpha1) = -1.70472e-30  Max(alpha1) = 1
MULES: Solving for alpha1
[...]
Reconstruction on level 11
[1] Building level 9
Creating AMGLevel 
[0] Building level 12
Reconstruction on level 12
Creating AMGLevel 
[0] Building level 13
Reconstruction on level 13
Creating AMGLevel 
[0] Building level 14
Reconstruction on level 14
Creating AMGLevel 
14 Level construction complete
[1] Building level 10
[1] Building level 11
[1] Building level 12
[1] Building level 13
[1] Building level 14
[5] Building level 4
[4] Building level 4
[5] Building level 5
[4] Building level 5
[5] Building level 6
[4] Building level 6
[5] Building level 7
[5] Building level 8
[4] Building level 7
[5] Building level 9
[5] Building level 10
[4] Building level 8
[5] Building level 11
[5] Building level 12
[5] Building level 13
[5] Building level 14
[4] Building level 9
[4] Building level 10
[4] Building level 11
[4] Building level 12
[4] Building level 13
[4] Building level 14
initial dot_x = 9.86257e+08
Iter #1 residual = 0.0256063
Iter #2 residual = 0.0127898
Iter #3 residual = 0.00686374
Iter #4 residual = 0.0154818
Iter #5 residual = 0.00626705
Iter #6 residual = 0.00950002
Iter #7 residual = 0.0168766
Iter #8 residual = 0.0084459
Iter #9 residual = 0.00906329
Iter #10 residual = 0.00594373
Iter #11 residual = 0.00340785
Iter #12 residual = 0.00977476
Iter #13 residual = 0.00431943
Iter #14 residual = 0.00478866
Iter #15 residual = 0.00435345
Iter #16 residual = 0.00573559
Iter #17 residual = 0.00269534
Iter #18 residual = 0.0046603
Iter #19 residual = 0.00208559
Iter #20 residual = 0.00447486
Iter #21 residual = 0.00824017
Iter #22 residual = 0.0044423
Iter #23 residual = 0.00342786
Iter #24 residual = 0.00320384
Iter #25 residual = 0.00168262
Iter #26 residual = 0.00318752
Iter #27 residual = 0.00233705
Iter #28 residual = 0.004738
Iter #29 residual = 0.00218382
Iter #30 residual = 0.00366006
Iter #31 residual = 0.00270107
Iter #32 residual = 0.00138109
Iter #33 residual = 0.0013955
Iter #34 residual = 0.000793582
Iter #35 residual = 0.00153037
Iter #36 residual = 0.00119572
Iter #37 residual = 0.000754253
Iter #38 residual = 0.00155968
Iter #39 residual = 0.000711593
Iter #40 residual = 0.000651677
Iter #41 residual = 0.000962703
Iter #42 residual = 0.00128497
Iter #43 residual = 0.000624731
Iter #44 residual = 0.000799459
Iter #45 residual = 0.000666032
GPU: 45 iters: 9.34165 s: 2.10107 GB/s
GPUAMG:  Solving for pd, Initial residual = 0.0117733, Final residual = 0.000402882, No Iterations 45
[5] Building level 0
[1] Building level 0
[3] Building level 0
[2] Building level 0
[4] Building level 0
[0] Building level 0
[3] Building level 1
[5] Building level 1
[2] Building level 1
[0] Building level 1
[1] Building level 1
[4] Building level 1
[0] Building level 2
[1] Building level 2
[2] Building level 2
[4] Building level 2
[3] Building level 2
[5] Building level 2
[2] Building level 3
[1] Building level 3
[3] Building level 3
[4] Building level 3
[0] Building level 3
[5] Building level 3
[2] Building level 4
[3] Building level 4
[0] Building level 4
[4] Building level 4
[1] Building level 4
[5] Building level 4
[2] Building level 5
[3] Building level 5
[4] Building level 5
[1] Building level 5
[0] Building level 5
[2] Building level 6
[3] Building level 6
[5] Building level 5
[2] Building level 7
[1] Building level 6
[4] Building level 6
[3] Building level 7
[0] Building level 6
[2] Building level 8
[2] Building level 9
[3] Building level 8
[2] Building level 10
[2] Building level 11
[2] Building level 12
[2] Building level 13
[2] Building level 14
[3] Building level 9
[4] Building level 7
[3] Building level 10
[1] Building level 7
[0] Building level 7
[3] Building level 11
[3] Building level 12
[3] Building level 13
[3] Building level 14
[5] Building level 6
[4] Building level 8
[1] Building level 8
[0] Building level 8
[4] Building level 9
[4] Building level 10
[1] Building level 9
[4] Building level 11
[4] Building level 12
[0] Building level 9
[4] Building level 13
[4] Building level 14
[1] Building level 10
[1] Building level 11
[0] Building level 10
[1] Building level 12
[1] Building level 13
[1] Building level 14
[0] Building level 11
[0] Building level 12
[0] Building level 13
[0] Building level 14
14 Level construction complete
[5] Building level 7
[5] Building level 8
[5] Building level 9
[5] Building level 10
[5] Building level 11
[5] Building level 12
[5] Building level 13
[5] Building level 14
initial dot_x = 4.6383e+08
Iter #1 residual = 0.00210284
Iter #2 residual = 0.00172629
Iter #3 residual = 0.00176357
Iter #4 residual = 0.00115712
Iter #5 residual = 0.000630812
Iter #6 residual = 0.00179222
Iter #7 residual = 0.000936591
Iter #8 residual = 0.00143594
Iter #9 residual = 0.00153749
Iter #10 residual = 0.00158721
Iter #11 residual = 0.000718718
Iter #12 residual = 0.000588663
Iter #13 residual = 0.00039213
Iter #14 residual = 0.000924187
Iter #15 residual = 0.00112957
Iter #16 residual = 0.00074591
Iter #17 residual = 0.00113991
Iter #18 residual = 0.000392837
Iter #19 residual = 0.000793032
Iter #20 residual = 0.00152293
Iter #21 residual = 0.00104452
Iter #22 residual = 0.000770071
Iter #23 residual = 0.000319306
Iter #24 residual = 0.000484926
Iter #25 residual = 0.000773915
GPU: 25 iters: 5.25997 s: 2.07304 GB/s
GPUAMG:  Solving for pd, Initial residual = 0.00581577, Final residual = 0.000262766, No Iterations 25
[5] Building level 0
[2] Building level 0
[4] Building level 0
[3] Building level 0
[0] Building level 0
[1] Building level 0
[0] Building level 1
[5] Building level 1
[3] Building level 1
[2] Building level 1
[1] Building level 1
[4] Building level 1
[3] Building level 2
[1] Building level 2
[2] Building level 2
[0] Building level 2
[5] Building level 2
[4] Building level 2
[3] Building level 3
[2] Building level 3
[1] Building level 3
[0] Building level 3
[4] Building level 3
[5] Building level 3
[3] Building level 4
[2] Building level 4
[0] Building level 4
[1] Building level 4
[4] Building level 4
[5] Building level 4
[3] Building level 5
[2] Building level 5
[0] Building level 5
[3] Building level 6
[2] Building level 6
[1] Building level 5
[4] Building level 5
[3] Building level 7
[2] Building level 7
[5] Building level 5
[3] Building level 8
[0] Building level 6
[2] Building level 8
[3] Building level 9
[3] Building level 10
[3] Building level 11
[2] Building level 9
[3] Building level 12
[3] Building level 13
[3] Building level 14
[1] Building level 6
[2] Building level 10
[4] Building level 6
[2] Building level 11
[2] Building level 12
[2] Building level 13
[2] Building level 14
[0] Building level 7
[0] Building level 8
[4] Building level 7
[1] Building level 7
[5] Building level 6
[0] Building level 9
[0] Building level 10
[0] Building level 11
[4] Building level 8
[0] Building level 12
[0] Building level 13
[0] Building level 14
[1] Building level 8
14 Level construction complete
[4] Building level 9
[1] Building level 9
[4] Building level 10
[4] Building level 11
[1] Building level 10
[4] Building level 12
[4] Building level 13
[4] Building level 14
[1] Building level 11
[5] Building level 7
[1] Building level 12
[1] Building level 13
[1] Building level 14
[5] Building level 8
[5] Building level 9
[5] Building level 10
[5] Building level 11
[5] Building level 12
[5] Building level 13
[5] Building level 14
initial dot_x = 7.24059e+08
Iter #1 residual = 0.000745096
Iter #2 residual = 0.000758238
Iter #3 residual = 0.000664759
Iter #4 residual = 0.000201489
Iter #5 residual = 0.000189505
Iter #6 residual = 0.000259961
Iter #7 residual = 0.000201303
Iter #8 residual = 0.000229432
Iter #9 residual = 0.00019304
Iter #10 residual = 0.000259773
Iter #11 residual = 0.000179614
Iter #12 residual = 0.000277499
Iter #13 residual = 0.000182186
Iter #14 residual = 0.000262215
Iter #15 residual = 0.000144793
GMRES:  Solving for topLevelCorr, Initial residual = 0.856317, Final residual = 0.964252, No Iterations 200
Iter #16 residual = 6.32533e-05
GMRES:  Solving for topLevelCorr, Initial residual = 0.894508, Final residual = 1.02456, No Iterations 200
Iter #17 residual = 3.94114e-05
GMRES:  Solving for topLevelCorr, Initial residual = 0.91074, Final residual = 1.10791, No Iterations 200
Iter #18 residual = 4.51212e-05
GMRES:  Solving for topLevelCorr, Initial residual = 0.886409, Final residual = 1.02505, No Iterations 200
Iter #19 residual = 3.66571e-05
GMRES:  Solving for topLevelCorr, Initial residual = 0.925495, Final residual = 1.16335, No Iterations 200
Iter #20 residual = 5.03795e-05
GMRES:  Solving for topLevelCorr, Initial residual = 0.852788, Final residual = 0.899925, No Iterations 200
Iter #21 residual = 3.60004e-05
GMRES:  Solving for topLevelCorr, Initial residual = 0.93945, Final residual = 1.24634, No Iterations 200
Iter #22 residual = 7.81975e-05
Iter #23 residual = 0.000252457
Iter #24 residual = 0.000177366
Iter #25 residual = 0.000382241
Iter #26 residual = 0.000399653
Iter #27 residual = 0.000120893
Iter #28 residual = 0.000372202
Iter #29 residual = 0.000325029
Iter #30 residual = 0.000211891
Iter #31 residual = 0.000137541
Iter #32 residual = 0.00024481
Iter #33 residual = 0.000187331
Iter #34 residual = 0.000248217
Iter #35 residual = 0.000214208
Iter #36 residual = 0.000123109
Iter #37 residual = 0.000319767
Iter #38 residual = 0.000178382
Iter #39 residual = 0.000244745
Iter #40 residual = 0.000308725
Iter #41 residual = 0.000284687
Iter #42 residual = 0.000140092
Iter #43 residual = 0.000251235
Iter #44 residual = 0.000116401
Iter #45 residual = 0.000256508
Iter #46 residual = 0.000259311
Iter #47 residual = 0.00011288
Iter #48 residual = 0.000159798
Iter #49 residual = 0.00015096
Iter #50 residual = 0.000240228
GPU: 50 iters: 10.3605 s: 2.10494 GB/s
GPUAMG:  Solving for pd, Initial residual = 0.00559068, Final residual = 0.000126492, No Iterations 50
time step continuity errors : sum local = 6.27859e-09, global = 2.65036e-12, cumulative = -7.62362e-08
ExecutionTime = 558.64 s  ClockTime = 587 s

Courant Number mean: 4.46152e-05 max: 0.00971296 velocity magnitude: 0.149363
Time = 0.01

MULES: Solving for alpha1
Liquid phase volume fraction = 0.00275429  Min(alpha1) = -1.88382e-29  Max(alpha1) = 1
MULES: Solving for alpha1
Liquid phase volume fraction = 0.00275429  Min(alpha1) = -3.26329e-29  Max(alpha1) = 1
[0] Building level 0
[2] Building level 0
[1] Building level 0
[3] Building level 0
[4] Building level 0
[5] Building level 0
[5] Building level 1
[1] Building level 1
[0] Building level 1
[2] Building level 1
[3] Building level 1
[4] Building level 1
[0] Building level 2
Reconstruction on level 2
[2] Building level 2
[3] Building level 2
[1] Building level 2
[4] Building level 2
[3] Building level 3
[2] Building level 3
[1] Building level 3
[3] Building level 4
[2] Building level 4
[4] Building level 3
Creating AMGLevel 
[0] Building level 3
Reconstruction on level 3
[2] Building level 5
[3] Building level 5
[5] Building level 2
[1] Building level 4
[4] Building level 4
Creating AMGLevel 
[0] Building level 4
Reconstruction on level 4
[2] Building level 6
[3] Building level 6
[3] Building level 7
[2] Building level 7
[3] Building level 8
[2] Building level 8
[3] Building level 9
[2] Building level 9
[3] Building level 10
[2] Building level 10
[3] Building level 11
[1] Building level 5
[2] Building level 11
[3] Building level 12
[2] Building level 12
[3] Building level 13
[4] Building level 5
[2] Building level 13
[3] Building level 14
[2] Building level 14
Creating AMGLevel 
[0] Building level 5
Reconstruction on level 5
[1] Building level 6
[5] Building level 3
[4] Building level 6
Creating AMGLevel 
[0] Building level 6
Reconstruction on level 6
[1] Building level 7
[4] Building level 7
Creating AMGLevel 
[0] Building level 7
Reconstruction on level 7
[1] Building level 8
[4] Building level 8
[1] Building level 9
Creating AMGLevel 
[0] Building level 8
Reconstruction on level 8
[4] Building level 9
[1] Building level 10
[1] Building level 11
[4] Building level 10
Creating AMGLevel 
[0] Building level 9
Reconstruction on level 9
[1] Building level 12
[1] Building level 13
[4] Building level 11
[1] Building level 14
[4] Building level 12
Creating AMGLevel 
[0] Building level 10
Reconstruction on level 10
[4] Building level 13
[4] Building level 14
Creating AMGLevel 
[0] Building level 11
Reconstruction on level 11
Creating AMGLevel 
[0] Building level 12
Reconstruction on level 12
Creating AMGLevel 
[0] Building level 13
Reconstruction on level 13
Creating AMGLevel 
[0] Building level 14
Reconstruction on level 14
Creating AMGLevel 
14 Level construction complete
[5] Building level 4
[5] Building level 5
[5] Building level 6
[5] Building level 7
[5] Building level 8
[5] Building level 9
[5] Building level 10
[5] Building level 11
[5] Building level 12
[5] Building level 13
[5] Building level 14
initial dot_x = 7.79621e+08
Iter #1 residual = 0.0241385
Iter #2 residual = 0.0122362
Iter #3 residual = 0.00804391
Iter #4 residual = 0.00880131
Iter #5 residual = 0.00737147
Iter #6 residual = 0.0184569
Iter #7 residual = 0.0119927
Iter #8 residual = 0.011174
Iter #9 residual = 0.00777657
Iter #10 residual = 0.00603394
Iter #11 residual = 0.00418888
Iter #12 residual = 0.0157121
Iter #13 residual = 0.00991907
Iter #14 residual = 0.00680052
Iter #15 residual = 0.00483111
Iter #16 residual = 0.00386542
Iter #17 residual = 0.00527638
Iter #18 residual = 0.00804757
Iter #19 residual = 0.00331961
Iter #20 residual = 0.00326962
Iter #21 residual = 0.00245984
Iter #22 residual = 0.00282664
Iter #23 residual = 0.00212862
Iter #24 residual = 0.00257196
Iter #25 residual = 0.00173637
Iter #26 residual = 0.00280418
Iter #27 residual = 0.00318951
Iter #28 residual = 0.00125509
Iter #29 residual = 0.000642603
Iter #30 residual = 0.00104659
GPU: 30 iters: 6.33243 s: 2.06635 GB/s
GPUAMG:  Solving for pd, Initial residual = 0.0125245, Final residual = 0.000593518, No Iterations 30
[3] Building level 0
[2] Building level 0
[4] Building level 0
[5] Building level 0
[1] Building level 0
[0] Building level 0
[3] Building level 1
[0] Building level 1
[2] Building level 1
[5] Building level 1
[1] Building level 1
[4] Building level 1
[0] Building level 2
[2] Building level 2
[1] Building level 2
[3] Building level 2
[4] Building level 2
[5] Building level 2
[2] Building level 3
[3] Building level 3
[1] Building level 3
[0] Building level 3
[4] Building level 3
[5] Building level 3
[3] Building level 4
[2] Building level 4
[1] Building level 4
[0] Building level 4
[4] Building level 4
[5] Building level 4
[3] Building level 5
[2] Building level 5
[1] Building level 5
[0] Building level 5
[3] Building level 6
[4] Building level 5
[5] Building level 5
[1] Building level 6
[2] Building level 6
[3] Building level 7
[1] Building level 7
[2] Building level 7
[3] Building level 8
[0] Building level 6
[3] Building level 9
[1] Building level 8
[2] Building level 8
[4] Building level 6
[3] Building level 10
[3] Building level 11
[3] Building level 12
[3] Building level 13
[3] Building level 14
[1] Building level 9
[5] Building level 6
[2] Building level 9
[1] Building level 10
[2] Building level 10
[1] Building level 11
[1] Building level 12
[1] Building level 13
[2] Building level 11
[1] Building level 14
[2] Building level 12
[2] Building level 13
[2] Building level 14
[0] Building level 7
[4] Building level 7
[5] Building level 7
[0] Building level 8
[4] Building level 8
[0] Building level 9
[4] Building level 9
[0] Building level 10
[5] Building level 8
[4] Building level 10
[0] Building level 11
[4] Building level 11
[0] Building level 12
[0] Building level 13
[4] Building level 12
[0] Building level 14
[4] Building level 13
14 Level construction complete
[4] Building level 14
[5] Building level 9
[5] Building level 10
[5] Building level 11
[5] Building level 12
[5] Building level 13
[5] Building level 14
initial dot_x = 6.09451e+08
Iter #1 residual = 0.00213879
Iter #2 residual = 0.00124438
Iter #3 residual = 0.000893973
Iter #4 residual = 0.000536446
Iter #5 residual = 0.000593986
GPU: 5 iters: 1.22467 s: 1.78075 GB/s
GPUAMG:  Solving for pd, Initial residual = 0.00606219, Final residual = 0.000300726, No Iterations 5
[0] Building level 0
[3] Building level 0
[5] Building level 0
[4] Building level 0
[1] Building level 0
[2] Building level 0
[0] Building level 1
[1] Building level 1
[5] Building level 1
[2] Building level 1
[3] Building level 1
[4] Building level 1
[3] Building level 2
[0] Building level 2
[1] Building level 2
[2] Building level 2
[4] Building level 2
[5] Building level 2
[3] Building level 3
[1] Building level 3
[2] Building level 3
[0] Building level 3
[4] Building level 3
[5] Building level 3
[3] Building level 4
[1] Building level 4
[2] Building level 4
[0] Building level 4
[4] Building level 4
[5] Building level 4
[3] Building level 5
[1] Building level 5
[2] Building level 5
[0] Building level 5
[4] Building level 5
[3] Building level 6
[5] Building level 5
[1] Building level 6
[2] Building level 6
[3] Building level 7
[1] Building level 7
[0] Building level 6
[3] Building level 8
[1] Building level 8
[4] Building level 6
[2] Building level 7
[3] Building level 9
[1] Building level 9
[3] Building level 10
[3] Building level 11
[5] Building level 6
[1] Building level 10
[3] Building level 12
[3] Building level 13
[3] Building level 14
[1] Building level 11
[1] Building level 12
[2] Building level 8
[1] Building level 13
[1] Building level 14
[0] Building level 7
[2] Building level 9
[4] Building level 7
[2] Building level 10
[2] Building level 11
[2] Building level 12
[2] Building level 13
[2] Building level 14
[0] Building level 8
[4] Building level 8
[5] Building level 7
[0] Building level 9
[4] Building level 9
[0] Building level 10
[0] Building level 11
[4] Building level 10
[0] Building level 12
[0] Building level 13
[0] Building level 14
14 Level construction complete
[4] Building level 11
[4] Building level 12
[4] Building level 13
[5] Building level 8
[4] Building level 14
[5] Building level 9
[5] Building level 10
[5] Building level 11
[5] Building level 12
[5] Building level 13
[5] Building level 14
initial dot_x = 5.8658e+08
Iter #1 residual = 0.00131623
Iter #2 residual = 0.00161355
Iter #3 residual = 0.00089587
Iter #4 residual = 0.00239878
Iter #5 residual = 0.00148106
Iter #6 residual = 0.00129932
Iter #7 residual = 0.000583082
Iter #8 residual = 0.000583076
Iter #9 residual = 0.000432072
Iter #10 residual = 0.000243577
Iter #11 residual = 0.000120267
Iter #12 residual = 8.92887e-05
Iter #13 residual = 0.000165631
Iter #14 residual = 0.00010532
Iter #15 residual = 6.38456e-05
Iter #16 residual = 9.32366e-05
Iter #17 residual = 5.8183e-05
Iter #18 residual = 3.93351e-05
Iter #19 residual = 3.25649e-05
Iter #20 residual = 1.77471e-05
Iter #21 residual = 1.00696e-05
Iter #22 residual = 6.0332e-06
Iter #23 residual = 1.03704e-05
Iter #24 residual = 6.6465e-06
Iter #25 residual = 4.90654e-06
Iter #26 residual = 4.65401e-06
Iter #27 residual = 3.80574e-06
Iter #28 residual = 1.81674e-06
Iter #29 residual = 2.60822e-06
Iter #30 residual = 1.53451e-06
Iter #31 residual = 1.36121e-06
Iter #32 residual = 1.8504e-06
Iter #33 residual = 1.3492e-06
Iter #34 residual = 2.56705e-06
Iter #35 residual = 1.54712e-06
Iter #36 residual = 9.25872e-07
Iter #37 residual = 1.71757e-06
Iter #38 residual = 1.33633e-06
Iter #39 residual = 3.80068e-07
Iter #40 residual = 5.71095e-07
Iter #41 residual = 3.19417e-07
Iter #42 residual = 9.02265e-07
Iter #43 residual = 6.00721e-07
Iter #44 residual = 4.86515e-07
Iter #45 residual = 2.03843e-07
Iter #46 residual = 2.34188e-07
Iter #47 residual = 2.54818e-07
Iter #48 residual = 4.01113e-07
Iter #49 residual = 2.53364e-07
GPU: 49 iters: 10.2057 s: 2.09414 GB/s
GPUAMG:  Solving for pd, Initial residual = 0.00596565, Final residual = 7.19282e-08, No Iterations 49
time step continuity errors : sum local = 4.52491e-11, global = -4.22157e-11, cumulative = -7.62784e-08
ExecutionTime = 611.9 s  ClockTime = 641 s

End

Finalising parallel run
