 Data for JOB [63859,1] offset 0

 ========================   JOB MAP   ========================

 Data for node: ivb106	Num slots: 6	Max slots: 0	Num procs: 6
 	Process OMPI jobid: [63859,1] App: 0 Process rank: 0
 	Process OMPI jobid: [63859,1] App: 0 Process rank: 1
 	Process OMPI jobid: [63859,1] App: 0 Process rank: 2
 	Process OMPI jobid: [63859,1] App: 0 Process rank: 3
 	Process OMPI jobid: [63859,1] App: 0 Process rank: 4
 	Process OMPI jobid: [63859,1] App: 0 Process rank: 5

 =============================================================
[ivb106:29409] MCW rank 3 bound to socket 0[core 3[hwt 0]]: [./././B/./././././.][./././././././././.]
[ivb106:29409] MCW rank 4 bound to socket 0[core 4[hwt 0]]: [././././B/././././.][./././././././././.]
[ivb106:29409] MCW rank 5 bound to socket 0[core 5[hwt 0]]: [./././././B/./././.][./././././././././.]
[ivb106:29409] MCW rank 0 bound to socket 0[core 0[hwt 0]]: [B/././././././././.][./././././././././.]
[ivb106:29409] MCW rank 1 bound to socket 0[core 1[hwt 0]]: [./B/./././././././.][./././././././././.]
[ivb106:29409] MCW rank 2 bound to socket 0[core 2[hwt 0]]: [././B/././././././.][./././././././././.]
/*---------------------------------------------------------------------------*\
| =========                 |                                                 |
| \\      /  F ield         | foam-extend: Open Source CFD                    |
|  \\    /   O peration     | Version:     3.1                                |
|   \\  /    A nd           | Web:         http://www.extend-project.de       |
|    \\/     M anipulation  |                                                 |
\*---------------------------------------------------------------------------*/
Build    : 3.1-e2da948002a2
Exec     : interFoam -parallel
Date     : May 21 2016
Time     : 10:18:12
Host     : ivb106
PID      : 29453
CtrlDict : /home-2/vplatonov/foam/foam-extend-3.1/etc/controlDict
Case     : /home/vplatonov/tests/rt12mln
nProcs   : 6
Slaves : 
5
(
ivb106.29465
ivb106.29454
ivb106.29467
ivb106.29461
ivb106.29456
)

Pstream initialized with:
    floatTransfer     : 0
    nProcsSimpleSum   : 0
    commsType         : blocking
SigFpe   : Enabling floating point exception trapping (FOAM_SIGFPE).

// * * * * * * * * * * * * * * * * * * * * * * * * * * * * * * * * * * * * * //
Create time

Create mesh for time = 0


Reading g
Reading field pd

Reading field alpha1

Reading field U

Reading/calculating face flux field phi

Reading transportProperties

Selecting incompressible transport model Newtonian
Selecting incompressible transport model Newtonian
Calculating field g.h

Selecting turbulence model type laminar
time step continuity errors : sum local = 0, global = 0, cumulative = 0
Created persistent data with name pcorr
GPUAMG:  Solving for pcorr, Initial residual = 0, Final residual = 0, No Iterations 0
time step continuity errors : sum local = 0, global = 0, cumulative = 0
Courant Number mean: 0 max: 0 velocity magnitude: 0

Starting time loop

Courant Number mean: 0 max: 0 velocity magnitude: 0
Time = 0.001

MULES: Solving for alpha1
Liquid phase volume fraction = 0.00275421  Min(alpha1) = 0  Max(alpha1) = 1
MULES: Solving for alpha1
Liquid phase volume fraction = 0.00275421  Min(alpha1) = 0  Max(alpha1) = 1
Created persistent data with name pd
[1] Building level 0
[2] Building level 0
[3] Building level 0
[4] Building level 0
[5] Building level 0
[0] Building level 0
[3] Building level 1
[1] Building level 1
[2] Building level 1
[4] Building level 1
Creating AMGLevel 
[5] Building level 1
[0] Building level 1
[3] Building level 2
[1] Building level 2
[2] Building level 2
[4] Building level 2
[5] Building level 2
Creating AMGLevel 
[0] Building level 2
[3] Building level 3
[1] Building level 3
[2] Building level 3
[5] Building level 3
[4] Building level 3
Creating AMGLevel 
[0] Building level 3
[3] Building level 4
[1] Building level 4
[2] Building level 4
[5] Building level 4
[4] Building level 4
Creating AMGLevel 
[0] Building level 4
[3] Building level 5
[1] Building level 5
[2] Building level 5
[5] Building level 5
[4] Building level 5
[3] Building level 6
[1] Building level 6
Creating AMGLevel 
[0] Building level 5
[2] Building level 6
[3] Building level 7
[5] Building level 6
[1] Building level 7
[3] Building level 8
[1] Building level 8
[4] Building level 6
[3] Building level 9
[5] Building level 7
[1] Building level 9
[2] Building level 7
[3] Building level 10
Creating AMGLevel 
[3] Building level 11
[0] Building level 6
[1] Building level 10
[3] Building level 12
[3] Building level 13
[3] Building level 14
[1] Building level 11
[1] Building level 12
[5] Building level 8
[1] Building level 13
[1] Building level 14
[2] Building level 8
[5] Building level 9
[4] Building level 7
[5] Building level 10
[2] Building level 9
[5] Building level 11
Creating AMGLevel 
[0] Building level 7
[5] Building level 12
[5] Building level 13
[5] Building level 14
[2] Building level 10
[4] Building level 8
[2] Building level 11
[2] Building level 12
Creating AMGLevel 
[2] Building level 13
[0] Building level 8
[2] Building level 14
[4] Building level 9
[4] Building level 10
Creating AMGLevel 
[0] Building level 9
[4] Building level 11
Creating AMGLevel 
[0] Building level 10
[4] Building level 12
[4] Building level 13
[4] Building level 14
Creating AMGLevel 
[0] Building level 11
Creating AMGLevel 
[0] Building level 12
Creating AMGLevel 
[0] Building level 13
Creating AMGLevel 
[0] Building level 14
Creating AMGLevel 
14 Level construction complete
initial dot_x = 0
Iter #1 residual = 0.0735088
GPU: 1 iters: 0.432863 s: 1.00794 GB/s
GPUAMG:  Solving for pd, Initial residual = 1, Final residual = 0.0272231, No Iterations 1
[0] Building level 0
[4] Building level 0
[5] Building level 0
[3] Building level 0
[1] Building level 0
[2] Building level 0
[3] Building level 1
[1] Building level 1
[2] Building level 1
[5] Building level 1
[0] Building level 1
[4] Building level 1
[3] Building level 2
[1] Building level 2
[0] Building level 2
[2] Building level 2
[5] Building level 2
[4] Building level 2
[1] Building level 3
[3] Building level 3
[2] Building level 3
[0] Building level 3
[5] Building level 3
[4] Building level 3
[1] Building level 4
[3] Building level 4
[2] Building level 4
[0] Building level 4
[5] Building level 4
[4] Building level 4
[3] Building level 5
[1] Building level 5
[2] Building level 5
[3] Building level 6
[0] Building level 5
[5] Building level 5
[1] Building level 6
[4] Building level 5
[1] Building level 7
[3] Building level 7
[2] Building level 6
[1] Building level 8
[3] Building level 8
[5] Building level 6
[1] Building level 9
[3] Building level 9
[1] Building level 10
[0] Building level 6
[1] Building level 11
[3] Building level 10
[1] Building level 12
[1] Building level 13
[1] Building level 14
[3] Building level 11
[3] Building level 12
[3] Building level 13
[3] Building level 14
[2] Building level 7
[4] Building level 6
[5] Building level 7
[2] Building level 8
[0] Building level 7
[2] Building level 9
[5] Building level 8
[2] Building level 10
[2] Building level 11
[0] Building level 8
[2] Building level 12
[2] Building level 13
[2] Building level 14
[5] Building level 9
[4] Building level 7
[5] Building level 10
[0] Building level 9
[5] Building level 11
[5] Building level 12
[5] Building level 13
[5] Building level 14
[0] Building level 10
[0] Building level 11
[0] Building level 12
[0] Building level 13
[0] Building level 14
14 Level construction complete
[4] Building level 8
[4] Building level 9
[4] Building level 10
[4] Building level 11
[4] Building level 12
[4] Building level 13
[4] Building level 14
initial dot_x = 75889.3
Iter #1 residual = 0.00835044
Iter #2 residual = 0.00430563
Iter #3 residual = 0.00228551
Iter #4 residual = 0.00122377
GPU: 4 iters: 1.08513 s: 1.60829 GB/s
GPUAMG:  Solving for pd, Initial residual = 0.0195871, Final residual = 0.000647023, No Iterations 4
[0] Building level 0
[4] Building level 0
[3] Building level 0
[2] Building level 0
[5] Building level 0
[1] Building level 0
[1] Building level 1
[2] Building level 1
[3] Building level 1
[5] Building level 1
[4] Building level 1
[0] Building level 1
[1] Building level 2
[3] Building level 2
[0] Building level 2
[2] Building level 2
[5] Building level 2
[4] Building level 2
[1] Building level 3
[3] Building level 3
[2] Building level 3
[5] Building level 3
[0] Building level 3
[4] Building level 3
[1] Building level 4
[3] Building level 4
[2] Building level 4
[0] Building level 4
[5] Building level 4
[4] Building level 4
[3] Building level 5
[1] Building level 5
[2] Building level 5
[3] Building level 6
[0] Building level 5
[5] Building level 5
[1] Building level 6
[4] Building level 5
[3] Building level 7
[1] Building level 7
[2] Building level 6
[3] Building level 8
[1] Building level 8
[5] Building level 6
[3] Building level 9
[1] Building level 9
[0] Building level 6
[3] Building level 10
[1] Building level 10
[3] Building level 11
[1] Building level 11
[1] Building level 12
[3] Building level 12
[1] Building level 13
[3] Building level 13
[1] Building level 14
[3] Building level 14
[2] Building level 7
[4] Building level 6
[5] Building level 7
[0] Building level 7
[2] Building level 8
[5] Building level 8
[2] Building level 9
[0] Building level 8
[5] Building level 9
[2] Building level 10
[2] Building level 11
[5] Building level 10
[4] Building level 7
[2] Building level 12
[2] Building level 13
[2] Building level 14
[5] Building level 11
[0] Building level 9
[5] Building level 12
[5] Building level 13
[5] Building level 14
[0] Building level 10
[0] Building level 11
[0] Building level 12
[0] Building level 13
[0] Building level 14
14 Level construction complete
[4] Building level 8
[4] Building level 9
[4] Building level 10
[4] Building level 11
[4] Building level 12
[4] Building level 13
[4] Building level 14
initial dot_x = 126222
Iter #1 residual = 0.00255173
Iter #2 residual = 0.00115624
Iter #3 residual = 0.000570606
Iter #4 residual = 0.000292636
Iter #5 residual = 0.000160937
Iter #6 residual = 9.85126e-05
Iter #7 residual = 6.25285e-05
Iter #8 residual = 3.97958e-05
Iter #9 residual = 2.72024e-05
Iter #10 residual = 1.79485e-05
Iter #11 residual = 1.37441e-05
Iter #12 residual = 1.01934e-05
Iter #13 residual = 7.5819e-06
Iter #14 residual = 6.1079e-06
Iter #15 residual = 5.4799e-06
Iter #16 residual = 5.39033e-06
Iter #17 residual = 4.9004e-06
Iter #18 residual = 3.98288e-06
Iter #19 residual = 1.09359e-05
Iter #20 residual = 7.55501e-06
Iter #21 residual = 5.15682e-06
Iter #22 residual = 3.7229e-06
Iter #23 residual = 3.96722e-06
Iter #24 residual = 2.09616e-06
Iter #25 residual = 1.34559e-06
Iter #26 residual = 1.67309e-06
Iter #27 residual = 1.25876e-06
Iter #28 residual = 1.07073e-06
Iter #29 residual = 1.12636e-06
Iter #30 residual = 1.44066e-06
Iter #31 residual = 1.36949e-06
Iter #32 residual = 1.12206e-06
Iter #33 residual = 1.02849e-06
Iter #34 residual = 7.82159e-07
Iter #35 residual = 9.6274e-07
Iter #36 residual = 8.93415e-07
Iter #37 residual = 8.26914e-07
Iter #38 residual = 7.58708e-07
Iter #39 residual = 8.93067e-07
Iter #40 residual = 6.80362e-07
Iter #41 residual = 1.14324e-06
Iter #42 residual = 9.59064e-07
Iter #43 residual = 9.94232e-07
Iter #44 residual = 7.27158e-07
Iter #45 residual = 9.66232e-07
Iter #46 residual = 6.77921e-07
Iter #47 residual = 9.33389e-07
Iter #48 residual = 6.41269e-07
Iter #49 residual = 7.67161e-07
Iter #50 residual = 5.70422e-07
GPU: 50 iters: 11.0484 s: 1.97449 GB/s
GPUAMG:  Solving for pd, Initial residual = 0.00627283, Final residual = 5.96422e-07, No Iterations 50
time step continuity errors : sum local = 4.96822e-11, global = -2.92684e-24, cumulative = -2.92684e-24
ExecutionTime = 70.84 s  ClockTime = 87 s

Courant Number mean: 4.83953e-06 max: 0.00216219 velocity magnitude: 0.0337842
Time = 0.002

MULES: Solving for alpha1
Liquid phase volume fraction = 0.00275421  Min(alpha1) = 0  Max(alpha1) = 1
MULES: Solving for alpha1
Liquid phase volume fraction = 0.00275421  Min(alpha1) = 0  Max(alpha1) = 1
[3] Building level 0
[2] Building level 0
[4] Building level 0
[1] Building level 0
[5] Building level 0
[0] Building level 0
[3] Building level 1
[1] Building level 1
[2] Building level 1
[5] Building level 1
[0] Building level 1
Reconstruction on level 1
[4] Building level 1
[3] Building level 2
[2] Building level 2
[3] Building level 3
[2] Building level 3
[3] Building level 4
[2] Building level 4
[3] Building level 5
[2] Building level 5
[1] Building level 2
[4] Building level 2
[5] Building level 2
[3] Building level 6
Creating AMGLevel 
[2] Building level 6
[0] Building level 2
Reconstruction on level 2
[3] Building level 7
[2] Building level 7
[3] Building level 8
[3] Building level 9
[2] Building level 8
[3] Building level 10
[3] Building level 11
[3] Building level 12
[3] Building level 13
[2] Building level 9
[3] Building level 14
[2] Building level 10
[2] Building level 11
[2] Building level 12
[2] Building level 13
[2] Building level 14
[1] Building level 3
[4] Building level 3
[5] Building level 3
Creating AMGLevel 
[0] Building level 3
Reconstruction on level 3
[1] Building level 4
[5] Building level 4
Creating AMGLevel 
[0] Building level 4
Reconstruction on level 4
[4] Building level 4
[1] Building level 5
[5] Building level 5
Creating AMGLevel 
[0] Building level 5
Reconstruction on level 5
[1] Building level 6
[4] Building level 5
[1] Building level 7
[5] Building level 6
Creating AMGLevel 
[0] Building level 6
Reconstruction on level 6
[1] Building level 8
[1] Building level 9
[1] Building level 10
[1] Building level 11
[1] Building level 12
[5] Building level 7
[1] Building level 13
[4] Building level 6
Creating AMGLevel 
[0] Building level 7
Reconstruction on level 7
[1] Building level 14
[5] Building level 8
Creating AMGLevel 
[0] Building level 8
Reconstruction on level 8
[5] Building level 9
Creating AMGLevel 
[0] Building level 9
Reconstruction on level 9
[5] Building level 10
[4] Building level 7
[5] Building level 11
Creating AMGLevel 
[0] Building level 10
Reconstruction on level 10
[5] Building level 12
[5] Building level 13
Creating AMGLevel 
[0] Building level 11
Reconstruction on level 11
[5] Building level 14
Creating AMGLevel 
[0] Building level 12
Reconstruction on level 12
Creating AMGLevel 
[0] Building level 13
Reconstruction on level 13
Creating AMGLevel 
[0] Building level 14
Reconstruction on level 14
Creating AMGLevel 
14 Level construction complete
[4] Building level 8
[4] Building level 9
[4] Building level 10
[4] Building level 11
[4] Building level 12
[4] Building level 13
[4] Building level 14
initial dot_x = 114514
Iter #1 residual = 0.0247898
Iter #2 residual = 0.0179728
Iter #3 residual = 0.00922394
Iter #4 residual = 0.0119098
Iter #5 residual = 0.00796029
Iter #6 residual = 0.0118914
Iter #7 residual = 0.00733694
Iter #8 residual = 0.011584
Iter #9 residual = 0.00906761
Iter #10 residual = 0.00981352
Iter #11 residual = 0.00623128
Iter #12 residual = 0.00917081
Iter #13 residual = 0.00692217
Iter #14 residual = 0.0164872
Iter #15 residual = 0.0145567
Iter #16 residual = 0.0112819
Iter #17 residual = 0.00528143
Iter #18 residual = 0.00575574
Iter #19 residual = 0.00560452
Iter #20 residual = 0.00533169
Iter #21 residual = 0.00576204
Iter #22 residual = 0.00411047
Iter #23 residual = 0.00581
Iter #24 residual = 0.00375452
Iter #25 residual = 0.00554482
Iter #26 residual = 0.00382042
Iter #27 residual = 0.00724586
Iter #28 residual = 0.00433244
Iter #29 residual = 0.00616967
Iter #30 residual = 0.00474599
Iter #31 residual = 0.00545325
Iter #32 residual = 0.00377532
Iter #33 residual = 0.00544176
Iter #34 residual = 0.0038496
Iter #35 residual = 0.00795641
Iter #36 residual = 0.00711553
Iter #37 residual = 0.0110132
Iter #38 residual = 0.00466296
Iter #39 residual = 0.00442784
Iter #40 residual = 0.0029845
Iter #41 residual = 0.00291975
Iter #42 residual = 0.007642
Iter #43 residual = 0.00748392
Iter #44 residual = 0.00357523
Iter #45 residual = 0.00315148
Iter #46 residual = 0.00653628
Iter #47 residual = 0.00287346
Iter #48 residual = 0.00376585
Iter #49 residual = 0.00252803
Iter #50 residual = 0.00159457
GPU: 50 iters: 10.5627 s: 2.0653 GB/s
GPUAMG:  Solving for pd, Initial residual = 0.00446208, Final residual = 0.0036346, No Iterations 50
[0] Building level 0
[4] Building level 0
[1] Building level 0
[3] Building level 0
[5] Building level 0
[2] Building level 0
[1] Building level 1
[3] Building level 1
[2] Building level 1
[4] Building level 1
[0] Building level 1
[5] Building level 1
[3] Building level 2
[1] Building level 2
[2] Building level 2
[4] Building level 2
[0] Building level 2
[5] Building level 2
[3] Building level 3
[1] Building level 3
[2] Building level 3
[5] Building level 3
[4] Building level 3
[0] Building level 3
[3] Building level 4
[1] Building level 4
[2] Building level 4
[0] Building level 4
[5] Building level 4
[4] Building level 4
[1] Building level 5
[3] Building level 5
[1] Building level 6
[2] Building level 5
[3] Building level 6
[0] Building level 5
[1] Building level 7
[5] Building level 5
[4] Building level 5
[1] Building level 8
[3] Building level 7
[1] Building level 9
[1] Building level 10
[1] Building level 11
[1] Building level 12
[1] Building level 13
[1] Building level 14
[3] Building level 8
[2] Building level 6
[3] Building level 9
[0] Building level 6
[3] Building level 10
[3] Building level 11
[3] Building level 12
[3] Building level 13
[3] Building level 14
[5] Building level 6
[2] Building level 7
[4] Building level 6
[0] Building level 7
[2] Building level 8
[5] Building level 7
[0] Building level 8
[2] Building level 9
[2] Building level 10
[0] Building level 9
[4] Building level 7
[2] Building level 11
[2] Building level 12
[2] Building level 13
[0] Building level 10
[2] Building level 14
[5] Building level 8
[0] Building level 11
[0] Building level 12
[0] Building level 13
[0] Building level 14
14 Level construction complete
[5] Building level 9
[4] Building level 8
[5] Building level 10
[5] Building level 11
[5] Building level 12
[5] Building level 13
[5] Building level 14
[4] Building level 9
[4] Building level 10
[4] Building level 11
[4] Building level 12
[4] Building level 13
[4] Building level 14
initial dot_x = 5.66673e+09
Iter #1 residual = 0.0235844
Iter #2 residual = 0.0214222
Iter #3 residual = 0.00748219
Iter #4 residual = 0.021277
Iter #5 residual = 0.00978176
Iter #6 residual = 0.0111365
Iter #7 residual = 0.00730181
Iter #8 residual = 0.00645509
Iter #9 residual = 0.0106937
Iter #10 residual = 0.00634553
Iter #11 residual = 0.0121536
Iter #12 residual = 0.00818371
Iter #13 residual = 0.011098
Iter #14 residual = 0.011534
Iter #15 residual = 0.0114713
Iter #16 residual = 0.0117208
Iter #17 residual = 0.00538857
Iter #18 residual = 0.0143515
Iter #19 residual = 0.0139539
Iter #20 residual = 0.00397804
Iter #21 residual = 0.00693063
Iter #22 residual = 0.00619567
Iter #23 residual = 0.00919086
Iter #24 residual = 0.00416799
Iter #25 residual = 0.00446443
Iter #26 residual = 0.00373958
Iter #27 residual = 0.00543969
Iter #28 residual = 0.00282266
Iter #29 residual = 0.00643703
Iter #30 residual = 0.00375844
Iter #31 residual = 0.00512281
Iter #32 residual = 0.00857046
Iter #33 residual = 0.00777017
Iter #34 residual = 0.00206214
GMRES:  Solving for topLevelCorr, Initial residual = 0.85264, Final residual = 0.857528, No Iterations 200
Iter #35 residual = 0.00123657
GMRES:  Solving for topLevelCorr, Initial residual = 0.895068, Final residual = 1.09676, No Iterations 200
Iter #36 residual = 0.000557306
GMRES:  Solving for topLevelCorr, Initial residual = 0.922333, Final residual = 1.18925, No Iterations 200
Iter #37 residual = 0.000784518
Iter #38 residual = 0.00596232
Iter #39 residual = 0.00442973
Iter #40 residual = 0.00289608
Iter #41 residual = 0.00189861
Iter #42 residual = 0.00237186
Iter #43 residual = 0.00175796
Iter #44 residual = 0.00362052
Iter #45 residual = 0.00372244
Iter #46 residual = 0.0022253
Iter #47 residual = 0.00168352
Iter #48 residual = 0.00223974
Iter #49 residual = 0.00420736
Iter #50 residual = 0.00375169
GPU: 50 iters: 10.5509 s: 2.0676 GB/s
GPUAMG:  Solving for pd, Initial residual = 0.00806236, Final residual = 0.00281851, No Iterations 50
[5] Building level 0
[4] Building level 0
[2] Building level 0
[3] Building level 0
[1] Building level 0
[0] Building level 0
[3] Building level 1
[2] Building level 1
[1] Building level 1
[4] Building level 1
[0] Building level 1
[5] Building level 1
[3] Building level 2
[2] Building level 2
[1] Building level 2
[4] Building level 2
[0] Building level 2
[5] Building level 2
[3] Building level 3
[2] Building level 3
[1] Building level 3
[5] Building level 3
[4] Building level 3
[0] Building level 3
[3] Building level 4
[1] Building level 4
[2] Building level 4
[0] Building level 4
[3] Building level 5
[5] Building level 4
[4] Building level 4
[1] Building level 5
[3] Building level 6
[2] Building level 5
[3] Building level 7
[1] Building level 6
[0] Building level 5
[3] Building level 8
[5] Building level 5
[3] Building level 9
[1] Building level 7
[3] Building level 10
[3] Building level 11
[4] Building level 5
[3] Building level 12
[3] Building level 13
[3] Building level 14
[2] Building level 6
[1] Building level 8
[1] Building level 9
[0] Building level 6
[1] Building level 10
[1] Building level 11
[1] Building level 12
[1] Building level 13
[1] Building level 14
[2] Building level 7
[5] Building level 6
[2] Building level 8
[0] Building level 7
[4] Building level 6
[2] Building level 9
[2] Building level 10
[2] Building level 11
[0] Building level 8
[2] Building level 12
[2] Building level 13
[2] Building level 14
[5] Building level 7
[0] Building level 9
[0] Building level 10
[0] Building level 11
[0] Building level 12
[5] Building level 8
[0] Building level 13
[0] Building level 14
14 Level construction complete
[4] Building level 7
[5] Building level 9
[5] Building level 10
[5] Building level 11
[5] Building level 12
[5] Building level 13
[4] Building level 8
[5] Building level 14
[4] Building level 9
[4] Building level 10
[4] Building level 11
[4] Building level 12
[4] Building level 13
[4] Building level 14
initial dot_x = 1.66919e+07
Iter #1 residual = 0.0200826
Iter #2 residual = 0.01317
Iter #3 residual = 0.0224186
Iter #4 residual = 0.0265899
Iter #5 residual = 0.0109452
Iter #6 residual = 0.0107659
Iter #7 residual = 0.00968633
Iter #8 residual = 0.00996629
Iter #9 residual = 0.0057099
Iter #10 residual = 0.00733648
Iter #11 residual = 0.00470802
Iter #12 residual = 0.0126091
Iter #13 residual = 0.00896748
Iter #14 residual = 0.01822
Iter #15 residual = 0.0290962
Iter #16 residual = 0.0121988
Iter #17 residual = 0.0114545
Iter #18 residual = 0.00630129
Iter #19 residual = 0.0075292
Iter #20 residual = 0.00321249
Iter #21 residual = 0.00432201
Iter #22 residual = 0.0030371
Iter #23 residual = 0.00638575
Iter #24 residual = 0.00291438
Iter #25 residual = 0.00269786
Iter #26 residual = 0.00385952
Iter #27 residual = 0.00233863
Iter #28 residual = 0.00123999
Iter #29 residual = 0.0021242
Iter #30 residual = 0.00178063
Iter #31 residual = 0.00331364
Iter #32 residual = 0.00250418
Iter #33 residual = 0.00481622
Iter #34 residual = 0.00219356
Iter #35 residual = 0.00150847
Iter #36 residual = 0.00150089
Iter #37 residual = 0.00179874
Iter #38 residual = 0.00157019
Iter #39 residual = 0.00252613
Iter #40 residual = 0.00147044
Iter #41 residual = 0.00481134
Iter #42 residual = 0.00198862
Iter #43 residual = 0.00197984
Iter #44 residual = 0.00245162
Iter #45 residual = 0.000984675
Iter #46 residual = 0.000979159
Iter #47 residual = 0.00097072
Iter #48 residual = 0.00104384
Iter #49 residual = 0.00057649
GMRES:  Solving for topLevelCorr, Initial residual = 0.818977, Final residual = 0.819487, No Iterations 200
Iter #50 residual = 0.00025267
GMRES:  Solving for topLevelCorr, Initial residual = 0.918061, Final residual = 1.14246, No Iterations 200
GPU: 50 iters: 10.6031 s: 2.05742 GB/s
GPUAMG:  Solving for pd, Initial residual = 0.00605679, Final residual = 0.000290519, No Iterations 50
time step continuity errors : sum local = 5.1431e-08, global = -4.12182e-08, cumulative = -4.12182e-08
ExecutionTime = 137.28 s  ClockTime = 157 s

Courant Number mean: 1.31453e-05 max: 0.201892 velocity magnitude: 1.57728
Time = 0.003

MULES: Solving for alpha1
Liquid phase volume fraction = 0.00275424  Min(alpha1) = -2.92115e-30  Max(alpha1) = 1
MULES: Solving for alpha1
Liquid phase volume fraction = 0.00275426  Min(alpha1) = -5.14021e-30  Max(alpha1) = 1
[0] Building level 0
[1] Building level 0
[4] Building level 0
[3] Building level 0
[2] Building level 0
[5] Building level 0
[1] Building level 1
[3] Building level 1
[2] Building level 1
[0] Building level 1
Reconstruction on level 1
[4] Building level 1
[5] Building level 1
[3] Building level 2
[1] Building level 2
[2] Building level 2
[4] Building level 2
[3] Building level 3
[2] Building level 3
[3] Building level 4
[2] Building level 4
[1] Building level 3
[4] Building level 3
[3] Building level 5
[2] Building level 5
[5] Building level 2
Creating AMGLevel 
[0] Building level 2
Reconstruction on level 2
[3] Building level 6
[1] Building level 4
[2] Building level 6
[4] Building level 4
[3] Building level 7
[2] Building level 7
[3] Building level 8
[2] Building level 8
[3] Building level 9
[3] Building level 10
[2] Building level 9
[3] Building level 11
[3] Building level 12
[3] Building level 13
[3] Building level 14
[2] Building level 10
[2] Building level 11
[1] Building level 5
[2] Building level 12
[2] Building level 13
[2] Building level 14
[4] Building level 5
[5] Building level 3
[1] Building level 6
Creating AMGLevel 
[0] Building level 3
Reconstruction on level 3
[4] Building level 6
[1] Building level 7
[1] Building level 8
[1] Building level 9
[4] Building level 7
[1] Building level 10
[1] Building level 11
[1] Building level 12
[1] Building level 13
[1] Building level 14
[4] Building level 8
[4] Building level 9
[4] Building level 10
[4] Building level 11
[4] Building level 12
[5] Building level 4
[4] Building level 13
[4] Building level 14
Creating AMGLevel 
[0] Building level 4
Reconstruction on level 4
[5] Building level 5
Creating AMGLevel 
[0] Building level 5
Reconstruction on level 5
[5] Building level 6
Creating AMGLevel 
[0] Building level 6
Reconstruction on level 6
[5] Building level 7
Creating AMGLevel 
[0] Building level 7
Reconstruction on level 7
[5] Building level 8
[5] Building level 9
[5] Building level 10
Creating AMGLevel 
[0] Building level 8
Reconstruction on level 8
[5] Building level 11
[5] Building level 12
[5] Building level 13
[5] Building level 14
Creating AMGLevel 
[0] Building level 9
Reconstruction on level 9
Creating AMGLevel 
[0] Building level 10
Reconstruction on level 10
Creating AMGLevel 
[0] Building level 11
Reconstruction on level 11
Creating AMGLevel 
[0] Building level 12
Reconstruction on level 12
Creating AMGLevel 
[0] Building level 13
Reconstruction on level 13
Creating AMGLevel 
[0] Building level 14
Reconstruction on level 14
Creating AMGLevel 
14 Level construction complete
initial dot_x = 7.63699e+09
Iter #1 residual = 0.0275646
Iter #2 residual = 0.0198134
Iter #3 residual = 0.018398
Iter #4 residual = 0.0135663
Iter #5 residual = 0.021098
Iter #6 residual = 0.0143782
Iter #7 residual = 0.0402182
Iter #8 residual = 0.0595877
Iter #9 residual = 0.0241575
Iter #10 residual = 0.0153086
Iter #11 residual = 0.0168918
Iter #12 residual = 0.0108643
Iter #13 residual = 0.00533496
Iter #14 residual = 0.00921475
Iter #15 residual = 0.00678051
Iter #16 residual = 0.00497189
Iter #17 residual = 0.0042158
Iter #18 residual = 0.0108582
Iter #19 residual = 0.00739579
Iter #20 residual = 0.00937909
Iter #21 residual = 0.00810803
Iter #22 residual = 0.00531598
Iter #23 residual = 0.00376849
Iter #24 residual = 0.006395
Iter #25 residual = 0.00464195
Iter #26 residual = 0.0061317
Iter #27 residual = 0.00594067
Iter #28 residual = 0.0161469
Iter #29 residual = 0.0111184
Iter #30 residual = 0.0122052
Iter #31 residual = 0.00617118
Iter #32 residual = 0.00321213
Iter #33 residual = 0.00241504
Iter #34 residual = 0.00163189
Iter #35 residual = 0.00361692
Iter #36 residual = 0.00248141
Iter #37 residual = 0.0017226
Iter #38 residual = 0.0012477
Iter #39 residual = 0.00067661
Iter #40 residual = 0.00116686
Iter #41 residual = 0.000732909
GPU: 41 iters: 9.2207 s: 1.94002 GB/s
GPUAMG:  Solving for pd, Initial residual = 0.00855618, Final residual = 0.000335275, No Iterations 41
[2] Building level 0
[5] Building level 0
[0] Building level 0
[1] Building level 0
[3] Building level 0
[4] Building level 0
[3] Building level 1
[1] Building level 1
[2] Building level 1
[4] Building level 1
[5] Building level 1
[0] Building level 1
[3] Building level 2
[1] Building level 2
[0] Building level 2
[2] Building level 2
[5] Building level 2
[4] Building level 2
[3] Building level 3
[0] Building level 3
[2] Building level 3
[1] Building level 3
[5] Building level 3
[4] Building level 3
[3] Building level 4
[0] Building level 4
[2] Building level 4
[1] Building level 4
[5] Building level 4
[4] Building level 4
[3] Building level 5
[0] Building level 5
[3] Building level 6
[2] Building level 5
[1] Building level 5
[5] Building level 5
[0] Building level 6
[4] Building level 5
[3] Building level 7
[0] Building level 7
[3] Building level 8
[3] Building level 9
[2] Building level 6
[0] Building level 8
[3] Building level 10
[3] Building level 11
[3] Building level 12
[3] Building level 13
[3] Building level 14
[0] Building level 9
[1] Building level 6
[0] Building level 10
[5] Building level 6
[0] Building level 11
[0] Building level 12
[0] Building level 13
[0] Building level 14
14 Level construction complete
[4] Building level 6
[2] Building level 7
[1] Building level 7
[5] Building level 7
[2] Building level 8
[1] Building level 8
[4] Building level 7
[2] Building level 9
[1] Building level 9
[5] Building level 8
[2] Building level 10
[2] Building level 11
[1] Building level 10
[2] Building level 12
[2] Building level 13
[2] Building level 14
[1] Building level 11
[1] Building level 12
[5] Building level 9
[1] Building level 13
[1] Building level 14
[4] Building level 8
[5] Building level 10
[5] Building level 11
[5] Building level 12
[5] Building level 13
[5] Building level 14
[4] Building level 9
[4] Building level 10
[4] Building level 11
[4] Building level 12
[4] Building level 13
[4] Building level 14
initial dot_x = 2.04621e+09
Iter #1 residual = 0.0133955
Iter #2 residual = 0.00980947
Iter #3 residual = 0.022155
Iter #4 residual = 0.0157161
Iter #5 residual = 0.019013
Iter #6 residual = 0.0104148
Iter #7 residual = 0.00915522
Iter #8 residual = 0.00727222
Iter #9 residual = 0.00611438
Iter #10 residual = 0.00558288
Iter #11 residual = 0.00561365
Iter #12 residual = 0.00444167
Iter #13 residual = 0.0136262
Iter #14 residual = 0.00892555
Iter #15 residual = 0.00568303
Iter #16 residual = 0.00546804
Iter #17 residual = 0.00914854
Iter #18 residual = 0.00504758
Iter #19 residual = 0.00987816
Iter #20 residual = 0.00590763
Iter #21 residual = 0.00513596
Iter #22 residual = 0.00242967
Iter #23 residual = 0.00136417
Iter #24 residual = 0.000706254
Iter #25 residual = 0.000862294
Iter #26 residual = 0.00202955
Iter #27 residual = 0.00116247
Iter #28 residual = 0.000819902
Iter #29 residual = 0.00177051
Iter #30 residual = 0.00152576
Iter #31 residual = 0.000550898
Iter #32 residual = 0.000441015
GPU: 32 iters: 7.27325 s: 1.91959 GB/s
GPUAMG:  Solving for pd, Initial residual = 0.00518658, Final residual = 0.000253091, No Iterations 32
[0] Building level 0
[5] Building level 0
[1] Building level 0
[2] Building level 0
[4] Building level 0
[3] Building level 0
[2] Building level 1
[3] Building level 1
[1] Building level 1
[5] Building level 1
[4] Building level 1
[0] Building level 1
[3] Building level 2
[2] Building level 2
[1] Building level 2
[0] Building level 2
[5] Building level 2
[4] Building level 2
[3] Building level 3
[2] Building level 3
[0] Building level 3
[1] Building level 3
[4] Building level 3
[5] Building level 3
[3] Building level 4
[0] Building level 4
[2] Building level 4
[1] Building level 4
[4] Building level 4
[5] Building level 4
[3] Building level 5
[0] Building level 5
[3] Building level 6
[2] Building level 5
[3] Building level 7
[1] Building level 5
[0] Building level 6
[3] Building level 8
[4] Building level 5
[5] Building level 5
[3] Building level 9
[3] Building level 10
[3] Building level 11
[3] Building level 12
[3] Building level 13
[3] Building level 14
[0] Building level 7
[2] Building level 6
[0] Building level 8
[1] Building level 6
[0] Building level 9
[0] Building level 10
[0] Building level 11
[2] Building level 7
[0] Building level 12
[0] Building level 13
[0] Building level 14
14 Level construction complete
[4] Building level 6
[5] Building level 6
[2] Building level 8
[1] Building level 7
[2] Building level 9
[2] Building level 10
[2] Building level 11
[1] Building level 8
[2] Building level 12
[2] Building level 13
[2] Building level 14
[4] Building level 7
[5] Building level 7
[1] Building level 9
[1] Building level 10
[1] Building level 11
[1] Building level 12
[1] Building level 13
[1] Building level 14
[4] Building level 8
[5] Building level 8
[4] Building level 9
[5] Building level 9
[4] Building level 10
[5] Building level 10
[4] Building level 11
[5] Building level 11
[4] Building level 12
[5] Building level 12
[4] Building level 13
[4] Building level 14
[5] Building level 13
[5] Building level 14
initial dot_x = 2.24649e+08
Iter #1 residual = 0.0136176
Iter #2 residual = 0.0117834
Iter #3 residual = 0.0266837
Iter #4 residual = 0.0162458
Iter #5 residual = 0.00796583
Iter #6 residual = 0.0106417
Iter #7 residual = 0.00651655
Iter #8 residual = 0.00460981
Iter #9 residual = 0.0057593
Iter #10 residual = 0.0030809
Iter #11 residual = 0.00191517
Iter #12 residual = 0.00149319
Iter #13 residual = 0.00104706
Iter #14 residual = 0.00120469
Iter #15 residual = 0.000950617
Iter #16 residual = 0.00288319
Iter #17 residual = 0.00197515
Iter #18 residual = 0.00120338
Iter #19 residual = 0.0023853
Iter #20 residual = 0.00123193
Iter #21 residual = 0.000520792
Iter #22 residual = 0.000386963
Iter #23 residual = 0.000237875
Iter #24 residual = 0.000237321
Iter #25 residual = 0.000192413
Iter #26 residual = 0.000252067
Iter #27 residual = 0.000229725
Iter #28 residual = 0.000203866
Iter #29 residual = 0.00020537
Iter #30 residual = 0.000145078
Iter #31 residual = 0.000199712
Iter #32 residual = 0.00020525
Iter #33 residual = 0.000178585
Iter #34 residual = 0.000612273
Iter #35 residual = 0.000392508
Iter #36 residual = 0.000260118
Iter #37 residual = 0.000256247
Iter #38 residual = 0.000228138
Iter #39 residual = 0.00013317
Iter #40 residual = 0.000108176
Iter #41 residual = 0.000119844
Iter #42 residual = 9.8048e-05
Iter #43 residual = 0.000126712
Iter #44 residual = 0.000114389
Iter #45 residual = 0.00010207
Iter #46 residual = 8.8407e-05
Iter #47 residual = 0.000194746
Iter #48 residual = 0.000132476
Iter #49 residual = 0.000264914
Iter #50 residual = 0.000217932
GPU: 50 iters: 11.2104 s: 1.94596 GB/s
GPUAMG:  Solving for pd, Initial residual = 0.00509159, Final residual = 0.000113127, No Iterations 50
time step continuity errors : sum local = 2.80527e-08, global = -2.23293e-08, cumulative = -6.35476e-08
ExecutionTime = 199.51 s  ClockTime = 221 s

Courant Number mean: 1.63658e-05 max: 0.134157 velocity magnitude: 1.0481
Time = 0.004

MULES: Solving for alpha1
Liquid phase volume fraction = 0.00275427  Min(alpha1) = -1.08275e-29  Max(alpha1) = 1
MULES: Solving for alpha1
Liquid phase volume fraction = 0.00275428  Min(alpha1) = -2.55837e-33  Max(alpha1) = 1
[3] Building level 0
[2] Building level 0
[5] Building level 0
[1] Building level 0
[4] Building level 0
[0] Building level 0
[2] Building level 1
[3] Building level 1
[1] Building level 1
[5] Building level 1
[0] Building level 1
Reconstruction on level 1
[4] Building level 1
[3] Building level 2
[1] Building level 2
[2] Building level 2
[4] Building level 2
[3] Building level 3
[2] Building level 3
[3] Building level 4
[2] Building level 4
[1] Building level 3
[4] Building level 3
[3] Building level 5
[2] Building level 5
[5] Building level 2
Creating AMGLevel 
[0] Building level 2
Reconstruction on level 2
[3] Building level 6
[1] Building level 4
[2] Building level 6
[4] Building level 4
[3] Building level 7
[2] Building level 7
[3] Building level 8
[3] Building level 9
[2] Building level 8
[3] Building level 10
[3] Building level 11
[3] Building level 12
[2] Building level 9
[3] Building level 13
[3] Building level 14
[2] Building level 10
[2] Building level 11
[1] Building level 5
[2] Building level 12
[2] Building level 13
[2] Building level 14
[5] Building level 3
[4] Building level 5
Creating AMGLevel 
[1] Building level 6
[0] Building level 3
Reconstruction on level 3
[4] Building level 6
[1] Building level 7
[1] Building level 8
[1] Building level 9
[4] Building level 7
[1] Building level 10
[1] Building level 11
[1] Building level 12
[1] Building level 13
[1] Building level 14
[4] Building level 8
[5] Building level 4
[4] Building level 9
[4] Building level 10
[4] Building level 11
[4] Building level 12
[4] Building level 13
[4] Building level 14
Creating AMGLevel 
[0] Building level 4
Reconstruction on level 4
[5] Building level 5
Creating AMGLevel 
[0] Building level 5
Reconstruction on level 5
[5] Building level 6
[5] Building level 7
Creating AMGLevel 
[0] Building level 6
Reconstruction on level 6
[5] Building level 8
[5] Building level 9
[5] Building level 10
[5] Building level 11
Creating AMGLevel 
[0] Building level 7
Reconstruction on level 7
[5] Building level 12
[5] Building level 13
[5] Building level 14
Creating AMGLevel 
[0] Building level 8
Reconstruction on level 8
Creating AMGLevel 
[0] Building level 9
Reconstruction on level 9
Creating AMGLevel 
[0] Building level 10
Reconstruction on level 10
Creating AMGLevel 
[0] Building level 11
Reconstruction on level 11
Creating AMGLevel 
[0] Building level 12
Reconstruction on level 12
Creating AMGLevel 
[0] Building level 13
Reconstruction on level 13
Creating AMGLevel 
[0] Building level 14
Reconstruction on level 14
Creating AMGLevel 
14 Level construction complete
initial dot_x = 2.73564e+09
Iter #1 residual = 0.0261341
Iter #2 residual = 0.0345098
Iter #3 residual = 0.0213197
Iter #4 residual = 0.011415
Iter #5 residual = 0.0292726
Iter #6 residual = 0.0308105
Iter #7 residual = 0.0213213
Iter #8 residual = 0.0115764
Iter #9 residual = 0.0168701
Iter #10 residual = 0.0141564
Iter #11 residual = 0.0239761
Iter #12 residual = 0.0115747
Iter #13 residual = 0.0110742
Iter #14 residual = 0.00940576
Iter #15 residual = 0.0150648
Iter #16 residual = 0.00906372
Iter #17 residual = 0.0106729
Iter #18 residual = 0.00446573
Iter #19 residual = 0.00827649
Iter #20 residual = 0.00533861
Iter #21 residual = 0.0151256
Iter #22 residual = 0.00947442
Iter #23 residual = 0.00860472
Iter #24 residual = 0.0069205
Iter #25 residual = 0.0104226
Iter #26 residual = 0.00661813
Iter #27 residual = 0.00313379
Iter #28 residual = 0.00352002
Iter #29 residual = 0.00567609
Iter #30 residual = 0.0032663
Iter #31 residual = 0.00348168
Iter #32 residual = 0.00446075
Iter #33 residual = 0.00322442
Iter #34 residual = 0.00274773
Iter #35 residual = 0.00291433
Iter #36 residual = 0.00193258
Iter #37 residual = 0.00189998
Iter #38 residual = 0.00246364
Iter #39 residual = 0.00182927
Iter #40 residual = 0.00205412
Iter #41 residual = 0.00123705
Iter #42 residual = 0.00240742
Iter #43 residual = 0.00157893
Iter #44 residual = 0.00192807
Iter #45 residual = 0.00168091
Iter #46 residual = 0.00127196
Iter #47 residual = 0.000698306
Iter #48 residual = 0.000520358
Iter #49 residual = 0.000680282
Iter #50 residual = 0.000519703
GPU: 50 iters: 10.7566 s: 2.02807 GB/s
GPUAMG:  Solving for pd, Initial residual = 0.00908937, Final residual = 0.000615825, No Iterations 50
[2] Building level 0
[4] Building level 0
[1] Building level 0
[5] Building level 0
[3] Building level 0
[0] Building level 0
[3] Building level 1
[1] Building level 1
[2] Building level 1
[4] Building level 1
[5] Building level 1
[0] Building level 1
[3] Building level 2
[1] Building level 2
[0] Building level 2
[2] Building level 2
[5] Building level 2
[4] Building level 2
[3] Building level 3
[2] Building level 3
[1] Building level 3
[0] Building level 3
[4] Building level 3
[5] Building level 3
[3] Building level 4
[2] Building level 4
[0] Building level 4
[1] Building level 4
[4] Building level 4
[5] Building level 4
[3] Building level 5
[2] Building level 5
[0] Building level 5
[3] Building level 6
[1] Building level 5
[2] Building level 6
[3] Building level 7
[5] Building level 5
[4] Building level 5
[3] Building level 8
[0] Building level 6
[3] Building level 9
[3] Building level 10
[3] Building level 11
[2] Building level 7
[3] Building level 12
[3] Building level 13
[3] Building level 14
[1] Building level 6
[2] Building level 8
[0] Building level 7
[2] Building level 9
[5] Building level 6
[2] Building level 10
[4] Building level 6
[2] Building level 11
[0] Building level 8
[1] Building level 7
[2] Building level 12
[2] Building level 13
[2] Building level 14
[0] Building level 9
[0] Building level 10
[0] Building level 11
[0] Building level 12
[1] Building level 8
[0] Building level 13
[0] Building level 14
14 Level construction complete
[5] Building level 7
[1] Building level 9
[4] Building level 7
[1] Building level 10
[1] Building level 11
[1] Building level 12
[1] Building level 13
[1] Building level 14
[5] Building level 8
[4] Building level 8
[5] Building level 9
[5] Building level 10
[4] Building level 9
[5] Building level 11
[5] Building level 12
[5] Building level 13
[5] Building level 14
[4] Building level 10
[4] Building level 11
[4] Building level 12
[4] Building level 13
[4] Building level 14
initial dot_x = 2.29963e+09
Iter #1 residual = 0.0088536
Iter #2 residual = 0.00652916
Iter #3 residual = 0.0114267
Iter #4 residual = 0.00745208
Iter #5 residual = 0.0175273
Iter #6 residual = 0.00841702
Iter #7 residual = 0.00615418
Iter #8 residual = 0.00324675
Iter #9 residual = 0.00381625
Iter #10 residual = 0.00527167
Iter #11 residual = 0.00363739
Iter #12 residual = 0.00278738
Iter #13 residual = 0.00216835
Iter #14 residual = 0.00180319
Iter #15 residual = 0.0030258
Iter #16 residual = 0.00263593
Iter #17 residual = 0.00188968
Iter #18 residual = 0.00386126
Iter #19 residual = 0.00258302
Iter #20 residual = 0.00312932
Iter #21 residual = 0.00168736
Iter #22 residual = 0.00324755
Iter #23 residual = 0.00599822
Iter #24 residual = 0.00303487
Iter #25 residual = 0.00299959
Iter #26 residual = 0.00162552
Iter #27 residual = 0.00515209
Iter #28 residual = 0.00365716
Iter #29 residual = 0.00408993
Iter #30 residual = 0.00237586
Iter #31 residual = 0.00188605
Iter #32 residual = 0.00104287
Iter #33 residual = 0.00259494
Iter #34 residual = 0.00192015
Iter #35 residual = 0.00227358
Iter #36 residual = 0.00130256
Iter #37 residual = 0.00102609
Iter #38 residual = 0.00040253
Iter #39 residual = 0.000969148
Iter #40 residual = 0.000652658
Iter #41 residual = 0.0015398
Iter #42 residual = 0.000954274
Iter #43 residual = 0.000567581
Iter #44 residual = 0.000497984
Iter #45 residual = 0.000459214
Iter #46 residual = 0.000484097
Iter #47 residual = 0.00041866
Iter #48 residual = 0.000674812
Iter #49 residual = 0.000429273
Iter #50 residual = 0.00156364
GPU: 50 iters: 10.7854 s: 2.02265 GB/s
GPUAMG:  Solving for pd, Initial residual = 0.00724698, Final residual = 0.00109428, No Iterations 50
[0] Building level 0
[4] Building level 0
[1] Building level 0
[3] Building level 0
[5] Building level 0
[2] Building level 0
[1] Building level 1
[3] Building level 1
[2] Building level 1
[5] Building level 1
[4] Building level 1
[0] Building level 1
[3] Building level 2
[1] Building level 2
[2] Building level 2
[0] Building level 2
[5] Building level 2
[4] Building level 2
[3] Building level 3
[2] Building level 3
[1] Building level 3
[0] Building level 3
[4] Building level 3
[5] Building level 3
[3] Building level 4
[2] Building level 4
[1] Building level 4
[0] Building level 4
[4] Building level 4
[5] Building level 4
[3] Building level 5
[2] Building level 5
[1] Building level 5
[3] Building level 6
[0] Building level 5
[2] Building level 6
[3] Building level 7
[4] Building level 5
[5] Building level 5
[3] Building level 8
[1] Building level 6
[2] Building level 7
[3] Building level 9
[3] Building level 10
[3] Building level 11
[3] Building level 12
[3] Building level 13
[3] Building level 14
[0] Building level 6
[2] Building level 8
[2] Building level 9
[1] Building level 7
[2] Building level 10
[2] Building level 11
[2] Building level 12
[2] Building level 13
[2] Building level 14
[4] Building level 6
[1] Building level 8
[0] Building level 7
[5] Building level 6
[1] Building level 9
[1] Building level 10
[1] Building level 11
[1] Building level 12
[1] Building level 13
[1] Building level 14
[0] Building level 8
[4] Building level 7
[0] Building level 9
[0] Building level 10
[0] Building level 11
[5] Building level 7
[0] Building level 12
[0] Building level 13
[0] Building level 14
14 Level construction complete
[4] Building level 8
[4] Building level 9
[5] Building level 8
[4] Building level 10
[4] Building level 11
[4] Building level 12
[4] Building level 13
[4] Building level 14
[5] Building level 9
[5] Building level 10
[5] Building level 11
[5] Building level 12
[5] Building level 13
[5] Building level 14
initial dot_x = 3.30901e+08
Iter #1 residual = 0.0127863
Iter #2 residual = 0.00917853
Iter #3 residual = 0.00932086
Iter #4 residual = 0.0067679
Iter #5 residual = 0.00710675
Iter #6 residual = 0.00536299
Iter #7 residual = 0.00763639
Iter #8 residual = 0.00563585
Iter #9 residual = 0.0099758
Iter #10 residual = 0.00522112
Iter #11 residual = 0.0107335
Iter #12 residual = 0.00592639
Iter #13 residual = 0.00301572
Iter #14 residual = 0.00414037
Iter #15 residual = 0.00351595
Iter #16 residual = 0.0020706
Iter #17 residual = 0.00174657
Iter #18 residual = 0.00239568
Iter #19 residual = 0.0018609
Iter #20 residual = 0.00428871
Iter #21 residual = 0.00303635
Iter #22 residual = 0.00199533
Iter #23 residual = 0.0012132
Iter #24 residual = 0.00221349
Iter #25 residual = 0.00184467
Iter #26 residual = 0.00128655
Iter #27 residual = 0.00200925
Iter #28 residual = 0.00172381
Iter #29 residual = 0.00100821
Iter #30 residual = 0.00213311
Iter #31 residual = 0.0021668
Iter #32 residual = 0.00145505
Iter #33 residual = 0.00085262
Iter #34 residual = 0.000619429
Iter #35 residual = 0.000857019
Iter #36 residual = 0.000613433
Iter #37 residual = 0.00066197
Iter #38 residual = 0.00118224
Iter #39 residual = 0.000816991
Iter #40 residual = 0.00141757
Iter #41 residual = 0.00133411
Iter #42 residual = 0.000863406
Iter #43 residual = 0.000496617
Iter #44 residual = 0.000648056
Iter #45 residual = 0.000404869
Iter #46 residual = 0.000846798
Iter #47 residual = 0.000644829
Iter #48 residual = 0.000351624
Iter #49 residual = 0.000221616
Iter #50 residual = 0.000355705
GPU: 50 iters: 10.7453 s: 2.03019 GB/s
GPUAMG:  Solving for pd, Initial residual = 0.00740734, Final residual = 0.000279782, No Iterations 50
time step continuity errors : sum local = 2.3038e-08, global = -1.05236e-08, cumulative = -7.40712e-08
ExecutionTime = 266.44 s  ClockTime = 291 s

Courant Number mean: 2.02262e-05 max: 0.0700827 velocity magnitude: 0.547521
Time = 0.005

MULES: Solving for alpha1
Liquid phase volume fraction = 0.00275429  Min(alpha1) = -8.17268e-30  Max(alpha1) = 1
MULES: Solving for alpha1
Liquid phase volume fraction = 0.00275429  Min(alpha1) = -2.16992e-32  Max(alpha1) = 1
[0] Building level 0
[5] Building level 0
[4] Building level 0
[1] Building level 0
[3] Building level 0
[2] Building level 0
[1] Building level 1
[3] Building level 1
[2] Building level 1
[0] Building level 1
Reconstruction on level 1
[5] Building level 1
[4] Building level 1
[3] Building level 2
[2] Building level 2
[4] Building level 2
[3] Building level 3
[2] Building level 3
[3] Building level 4
[2] Building level 4
[4] Building level 3
[3] Building level 5
[2] Building level 5
[1] Building level 2
[5] Building level 2
Creating AMGLevel 
[0] Building level 2
Reconstruction on level 2
[3] Building level 6
[2] Building level 6
[4] Building level 4
[3] Building level 7
[2] Building level 7
[3] Building level 8
[3] Building level 9
[2] Building level 8
[3] Building level 10
[3] Building level 11
[3] Building level 12
[3] Building level 13
[2] Building level 9
[3] Building level 14
[2] Building level 10
[2] Building level 11
[2] Building level 12
[2] Building level 13
[2] Building level 14
[1] Building level 3
[4] Building level 5
[5] Building level 3
Creating AMGLevel 
[0] Building level 3
Reconstruction on level 3
[4] Building level 6
[4] Building level 7
[4] Building level 8
[1] Building level 4
[4] Building level 9
[4] Building level 10
[5] Building level 4
[4] Building level 11
[4] Building level 12
[4] Building level 13
[4] Building level 14
Creating AMGLevel 
[0] Building level 4
Reconstruction on level 4
[1] Building level 5
[5] Building level 5
Creating AMGLevel 
[0] Building level 5
Reconstruction on level 5
[1] Building level 6
[5] Building level 6
[1] Building level 7
Creating AMGLevel 
[0] Building level 6
Reconstruction on level 6
[5] Building level 7
[1] Building level 8
[1] Building level 9
[5] Building level 8
[1] Building level 10
[1] Building level 11
[5] Building level 9
Creating AMGLevel 
[1] Building level 12
[0] Building level 7
Reconstruction on level 7
[1] Building level 13
[1] Building level 14
[5] Building level 10
[5] Building level 11
[5] Building level 12
[5] Building level 13
[5] Building level 14
Creating AMGLevel 
[0] Building level 8
Reconstruction on level 8
Creating AMGLevel 
[0] Building level 9
Reconstruction on level 9
Creating AMGLevel 
[0] Building level 10
Reconstruction on level 10
Creating AMGLevel 
[0] Building level 11
Reconstruction on level 11
Creating AMGLevel 
[0] Building level 12
Reconstruction on level 12
Creating AMGLevel 
[0] Building level 13
Reconstruction on level 13
Creating AMGLevel 
[0] Building level 14
Reconstruction on level 14
Creating AMGLevel 
14 Level construction complete
initial dot_x = 3.48108e+09
Iter #1 residual = 0.0236562
Iter #2 residual = 0.0208739
Iter #3 residual = 0.0355032
Iter #4 residual = 0.0237344
Iter #5 residual = 0.0167048
Iter #6 residual = 0.0125591
Iter #7 residual = 0.0191137
Iter #8 residual = 0.0140598
Iter #9 residual = 0.0108233
Iter #10 residual = 0.00985655
Iter #11 residual = 0.00922027
Iter #12 residual = 0.00918946
Iter #13 residual = 0.00756496
Iter #14 residual = 0.0184651
Iter #15 residual = 0.0115256
Iter #16 residual = 0.0420008
Iter #17 residual = 0.0227941
Iter #18 residual = 0.009361
Iter #19 residual = 0.00832102
Iter #20 residual = 0.00677132
Iter #21 residual = 0.0153324
Iter #22 residual = 0.0087751
Iter #23 residual = 0.0278024
Iter #24 residual = 0.0134365
Iter #25 residual = 0.00905827
Iter #26 residual = 0.00390334
Iter #27 residual = 0.00550758
Iter #28 residual = 0.00358418
Iter #29 residual = 0.00656204
Iter #30 residual = 0.0101597
Iter #31 residual = 0.00823115
Iter #32 residual = 0.00399668
Iter #33 residual = 0.00894809
Iter #34 residual = 0.00443086
Iter #35 residual = 0.00436559
Iter #36 residual = 0.00312832
Iter #37 residual = 0.00186998
Iter #38 residual = 0.00188083
Iter #39 residual = 0.0016184
Iter #40 residual = 0.00229563
Iter #41 residual = 0.00151722
Iter #42 residual = 0.0019036
Iter #43 residual = 0.00135832
Iter #44 residual = 0.00344397
Iter #45 residual = 0.00206611
Iter #46 residual = 0.00489814
Iter #47 residual = 0.00411511
Iter #48 residual = 0.00323614
Iter #49 residual = 0.00345339
Iter #50 residual = 0.00165674
GPU: 50 iters: 10.8418 s: 2.01213 GB/s
GPUAMG:  Solving for pd, Initial residual = 0.00779317, Final residual = 0.00225872, No Iterations 50
[2] Building level 0
[3] Building level 0
[1] Building level 0
[0] Building level 0
[5] Building level 0
[4] Building level 0
[3] Building level 1
[1] Building level 1
[2] Building level 1
[5] Building level 1
[4] Building level 1
[0] Building level 1
[3] Building level 2
[1] Building level 2
[2] Building level 2
[0] Building level 2
[4] Building level 2
[5] Building level 2
[3] Building level 3
[2] Building level 3
[0] Building level 3
[1] Building level 3
[4] Building level 3
[5] Building level 3
[3] Building level 4
[1] Building level 4
[2] Building level 4
[0] Building level 4
[5] Building level 4
[4] Building level 4
[3] Building level 5
[2] Building level 5
[3] Building level 6
[1] Building level 5
[5] Building level 5
[0] Building level 5
[4] Building level 5
[3] Building level 7
[3] Building level 8
[2] Building level 6
[3] Building level 9
[3] Building level 10
[1] Building level 6
[3] Building level 11
[3] Building level 12
[3] Building level 13
[3] Building level 14
[5] Building level 6
[0] Building level 6
[4] Building level 6
[2] Building level 7
[1] Building level 7
[5] Building level 7
[2] Building level 8
[0] Building level 7
[1] Building level 8
[2] Building level 9
[4] Building level 7
[5] Building level 8
[2] Building level 10
[1] Building level 9
[2] Building level 11
[2] Building level 12
[0] Building level 8
[2] Building level 13
[5] Building level 9
[2] Building level 14
[1] Building level 10
[1] Building level 11
[5] Building level 10
[1] Building level 12
[1] Building level 13
[1] Building level 14
[5] Building level 11
[4] Building level 8
[0] Building level 9
[5] Building level 12
[5] Building level 13
[5] Building level 14
[0] Building level 10
[0] Building level 11
[4] Building level 9
[0] Building level 12
[0] Building level 13
[0] Building level 14
14 Level construction complete
[4] Building level 10
[4] Building level 11
[4] Building level 12
[4] Building level 13
[4] Building level 14
initial dot_x = 1.96138e+09
Iter #1 residual = 0.00320852
Iter #2 residual = 0.00201748
Iter #3 residual = 0.00110022
Iter #4 residual = 0.000714979
Iter #5 residual = 0.000824604
Iter #6 residual = 0.000632149
Iter #7 residual = 0.000463174
GPU: 7 iters: 1.70789 s: 1.78824 GB/s
GPUAMG:  Solving for pd, Initial residual = 0.00810368, Final residual = 0.000250575, No Iterations 7
[0] Building level 0
[2] Building level 0
[1] Building level 0
[3] Building level 0
[5] Building level 0
[4] Building level 0
[1] Building level 1
[3] Building level 1
[2] Building level 1
[5] Building level 1
[4] Building level 1
[0] Building level 1
[3] Building level 2
[1] Building level 2
[0] Building level 2
[2] Building level 2
[4] Building level 2
[5] Building level 2
[3] Building level 3
[2] Building level 3
[1] Building level 3
[0] Building level 3
[4] Building level 3
[5] Building level 3
[3] Building level 4
[1] Building level 4
[2] Building level 4
[0] Building level 4
[5] Building level 4
[4] Building level 4
[3] Building level 5
[1] Building level 5
[3] Building level 6
[2] Building level 5
[0] Building level 5
[3] Building level 7
[5] Building level 5
[4] Building level 5
[3] Building level 8
[1] Building level 6
[3] Building level 9
[3] Building level 10
[3] Building level 11
[2] Building level 6
[3] Building level 12
[3] Building level 13
[3] Building level 14
[1] Building level 7
[0] Building level 6
[5] Building level 6
[4] Building level 6
[2] Building level 7
[1] Building level 8
[1] Building level 9
[1] Building level 10
[1] Building level 11
[2] Building level 8
[1] Building level 12
[1] Building level 13
[1] Building level 14
[0] Building level 7
[5] Building level 7
[2] Building level 9
[4] Building level 7
[2] Building level 10
[2] Building level 11
[2] Building level 12
[2] Building level 13
[2] Building level 14
[0] Building level 8
[5] Building level 8
[4] Building level 8
[0] Building level 9
[5] Building level 9
[0] Building level 10
[5] Building level 10
[0] Building level 11
[4] Building level 9
[5] Building level 11
[0] Building level 12
[5] Building level 12
[0] Building level 13
[0] Building level 14
14 Level construction complete
[5] Building level 13
[5] Building level 14
[4] Building level 10
[4] Building level 11
[4] Building level 12
[4] Building level 13
[4] Building level 14
initial dot_x = 1.89072e+09
Iter #1 residual = 0.0031055
Iter #2 residual = 0.00327163
Iter #3 residual = 0.00206788
Iter #4 residual = 0.00213528
Iter #5 residual = 0.00132987
Iter #6 residual = 0.0039333
Iter #7 residual = 0.00255051
Iter #8 residual = 0.00408202
Iter #9 residual = 0.00189788
Iter #10 residual = 0.00200515
Iter #11 residual = 0.00125599
Iter #12 residual = 0.00064318
Iter #13 residual = 0.000675642
Iter #14 residual = 0.000868834
Iter #15 residual = 0.000821876
Iter #16 residual = 0.00172515
Iter #17 residual = 0.00125839
Iter #18 residual = 0.00166349
Iter #19 residual = 0.000892549
Iter #20 residual = 0.00148008
Iter #21 residual = 0.00104238
Iter #22 residual = 0.000523633
Iter #23 residual = 0.000533061
Iter #24 residual = 0.000334325
Iter #25 residual = 0.000585197
Iter #26 residual = 0.000382711
Iter #27 residual = 0.00147237
Iter #28 residual = 0.000990172
Iter #29 residual = 0.000437916
Iter #30 residual = 0.00047716
Iter #31 residual = 0.000295668
Iter #32 residual = 0.000374064
Iter #33 residual = 0.000259882
Iter #34 residual = 0.00026886
Iter #35 residual = 0.000708378
Iter #36 residual = 0.000475372
Iter #37 residual = 0.000353317
Iter #38 residual = 0.000214431
Iter #39 residual = 0.000307302
Iter #40 residual = 0.000177016
Iter #41 residual = 0.000771026
Iter #42 residual = 0.000454498
Iter #43 residual = 0.000186516
Iter #44 residual = 0.000173334
Iter #45 residual = 0.000137995
Iter #46 residual = 0.000110301
Iter #47 residual = 0.000109386
Iter #48 residual = 9.83832e-05
Iter #49 residual = 8.93077e-05
Iter #50 residual = 0.00010504
GPU: 50 iters: 10.8607 s: 2.00862 GB/s
GPUAMG:  Solving for pd, Initial residual = 0.00581751, Final residual = 9.80984e-05, No Iterations 50
time step continuity errors : sum local = 7.53269e-09, global = -2.47682e-09, cumulative = -7.6548e-08
ExecutionTime = 324.85 s  ClockTime = 352 s

Courant Number mean: 2.4426e-05 max: 0.0239324 velocity magnitude: 0.279869
Time = 0.006

MULES: Solving for alpha1
Liquid phase volume fraction = 0.00275429  Min(alpha1) = -8.55286e-30  Max(alpha1) = 1
MULES: Solving for alpha1
Liquid phase volume fraction = 0.00275429  Min(alpha1) = -3.79953e-30  Max(alpha1) = 1
[0] Building level 0
[5] Building level 0
[3] Building level 0
[4] Building level 0
[2] Building level 0
[1] Building level 0
[3] Building level 1
[1] Building level 1
[2] Building level 1
[5] Building level 1
[0] Building level 1
Reconstruction on level 1
[4] Building level 1
[3] Building level 2
[2] Building level 2
[4] Building level 2
[3] Building level 3
[2] Building level 3
[3] Building level 4
[2] Building level 4
[4] Building level 3
[3] Building level 5
[2] Building level 5
[1] Building level 2
[5] Building level 2
Creating AMGLevel 
[0] Building level 2
Reconstruction on level 2
[3] Building level 6
[2] Building level 6
[4] Building level 4
[3] Building level 7
[2] Building level 7
[3] Building level 8
[3] Building level 9
[2] Building level 8
[3] Building level 10
[3] Building level 11
[3] Building level 12
[3] Building level 13
[3] Building level 14
[2] Building level 9
[2] Building level 10
[2] Building level 11
[2] Building level 12
[2] Building level 13
[2] Building level 14
[4] Building level 5
[1] Building level 3
[5] Building level 3
Creating AMGLevel 
[0] Building level 3
Reconstruction on level 3
[4] Building level 6
[4] Building level 7
[4] Building level 8
[4] Building level 9
[4] Building level 10
[4] Building level 11
[4] Building level 12
[4] Building level 13
[1] Building level 4
[5] Building level 4
[4] Building level 14
Creating AMGLevel 
[0] Building level 4
Reconstruction on level 4
[5] Building level 5
[1] Building level 5
Creating AMGLevel 
[0] Building level 5
Reconstruction on level 5
[5] Building level 6
[1] Building level 6
Creating AMGLevel 
[0] Building level 6
Reconstruction on level 6
[5] Building level 7
[1] Building level 7
Creating AMGLevel 
[0] Building level 7
Reconstruction on level 7
[5] Building level 8
[1] Building level 8
[5] Building level 9
[1] Building level 9
Creating AMGLevel 
[0] Building level 8
Reconstruction on level 8
[5] Building level 10
[5] Building level 11
[1] Building level 10
[5] Building level 12
[1] Building level 11
[5] Building level 13
[5] Building level 14
[1] Building level 12
Creating AMGLevel 
[1] Building level 13
[0] Building level 9
Reconstruction on level 9
[1] Building level 14
Creating AMGLevel 
[0] Building level 10
Reconstruction on level 10
Creating AMGLevel 
[0] Building level 11
Reconstruction on level 11
Creating AMGLevel 
[0] Building level 12
Reconstruction on level 12
Creating AMGLevel 
[0] Building level 13
Reconstruction on level 13
Creating AMGLevel 
[0] Building level 14
Reconstruction on level 14
Creating AMGLevel 
14 Level construction complete
initial dot_x = 2.95319e+09
Iter #1 residual = 0.0458757
Iter #2 residual = 0.0304309
Iter #3 residual = 0.0121138
Iter #4 residual = 0.00688902
Iter #5 residual = 0.00538703
Iter #6 residual = 0.0081256
Iter #7 residual = 0.0050421
Iter #8 residual = 0.00363898
Iter #9 residual = 0.00516247
Iter #10 residual = 0.00239273
Iter #11 residual = 0.00174911
Iter #12 residual = 0.0010193
Iter #13 residual = 0.00164806
Iter #14 residual = 0.00105986
Iter #15 residual = 0.00101861
Iter #16 residual = 0.00114643
Iter #17 residual = 0.000783786
Iter #18 residual = 0.00213312
Iter #19 residual = 0.00144518
Iter #20 residual = 0.000759189
Iter #21 residual = 0.000448747
GPU: 21 iters: 4.51831 s: 2.02782 GB/s
GPUAMG:  Solving for pd, Initial residual = 0.00842296, Final residual = 0.000365855, No Iterations 21
[4] Building level 0
[5] Building level 0
[3] Building level 0
[1] Building level 0
[2] Building level 0
[0] Building level 0
[3] Building level 1
[1] Building level 1
[2] Building level 1
[4] Building level 1
[5] Building level 1
[0] Building level 1
[3] Building level 2
[1] Building level 2
[0] Building level 2
[2] Building level 2
[5] Building level 2
[4] Building level 2
[3] Building level 3
[1] Building level 3
[2] Building level 3
[5] Building level 3
[0] Building level 3
[4] Building level 3
[3] Building level 4
[1] Building level 4
[2] Building level 4
[5] Building level 4
[0] Building level 4
[4] Building level 4
[3] Building level 5
[1] Building level 5
[2] Building level 5
[3] Building level 6
[5] Building level 5
[0] Building level 5
[4] Building level 5
[1] Building level 6
[3] Building level 7
[2] Building level 6
[3] Building level 8
[3] Building level 9
[3] Building level 10
[3] Building level 11
[1] Building level 7
[3] Building level 12
[3] Building level 13
[3] Building level 14
[2] Building level 7
[5] Building level 6
[1] Building level 8
[0] Building level 6
[2] Building level 8
[4] Building level 6
[1] Building level 9
[1] Building level 10
[2] Building level 9
[1] Building level 11
[1] Building level 12
[1] Building level 13
[1] Building level 14
[2] Building level 10
[2] Building level 11
[2] Building level 12
[2] Building level 13
[2] Building level 14
[5] Building level 7
[0] Building level 7
[4] Building level 7
[5] Building level 8
[0] Building level 8
[5] Building level 9
[4] Building level 8
[0] Building level 9
[5] Building level 10
[5] Building level 11
[5] Building level 12
[0] Building level 10
[5] Building level 13
[5] Building level 14
[0] Building level 11
[4] Building level 9
[0] Building level 12
[0] Building level 13
[0] Building level 14
14 Level construction complete
[4] Building level 10
[4] Building level 11
[4] Building level 12
[4] Building level 13
[4] Building level 14
initial dot_x = 1.59709e+09
Iter #1 residual = 0.00372468
Iter #2 residual = 0.00276634
Iter #3 residual = 0.00180714
Iter #4 residual = 0.0020317
Iter #5 residual = 0.00153814
Iter #6 residual = 0.00141103
Iter #7 residual = 0.00146797
Iter #8 residual = 0.00117139
Iter #9 residual = 0.00311165
Iter #10 residual = 0.00206404
Iter #11 residual = 0.00288059
Iter #12 residual = 0.00220685
Iter #13 residual = 0.00116558
Iter #14 residual = 0.000866237
Iter #15 residual = 0.00119491
Iter #16 residual = 0.000969252
Iter #17 residual = 0.00126621
Iter #18 residual = 0.000922348
Iter #19 residual = 0.00124557
Iter #20 residual = 0.000908617
Iter #21 residual = 0.00110679
Iter #22 residual = 0.00239663
Iter #23 residual = 0.00145292
Iter #24 residual = 0.00110162
Iter #25 residual = 0.00145565
Iter #26 residual = 0.000728015
Iter #27 residual = 0.000475455
Iter #28 residual = 0.000873177
Iter #29 residual = 0.000508025
Iter #30 residual = 0.000329838
Iter #31 residual = 0.000292935
GPU: 31 iters: 6.56717 s: 2.05954 GB/s
GPUAMG:  Solving for pd, Initial residual = 0.0054908, Final residual = 0.000195208, No Iterations 31
[5] Building level 0
[0] Building level 0
[2] Building level 0
[1] Building level 0
[3] Building level 0
[4] Building level 0
[3] Building level 1
[1] Building level 1
[2] Building level 1
[5] Building level 1
[0] Building level 1
[4] Building level 1
[3] Building level 2
[1] Building level 2
[2] Building level 2
[0] Building level 2
[5] Building level 2
[4] Building level 2
[3] Building level 3
[1] Building level 3
[2] Building level 3
[5] Building level 3
[0] Building level 3
[4] Building level 3
[3] Building level 4
[1] Building level 4
[2] Building level 4
[5] Building level 4
[0] Building level 4
[4] Building level 4
[3] Building level 5
[1] Building level 5
[2] Building level 5
[3] Building level 6
[5] Building level 5
[4] Building level 5
[0] Building level 5
[3] Building level 7
[1] Building level 6
[2] Building level 6
[3] Building level 8
[3] Building level 9
[3] Building level 10
[1] Building level 7
[3] Building level 11
[3] Building level 12
[3] Building level 13
[3] Building level 14
[2] Building level 7
[1] Building level 8
[5] Building level 6
[4] Building level 6
[2] Building level 8
[0] Building level 6
[1] Building level 9
[1] Building level 10
[2] Building level 9
[1] Building level 11
[1] Building level 12
[1] Building level 13
[1] Building level 14
[2] Building level 10
[2] Building level 11
[2] Building level 12
[2] Building level 13
[2] Building level 14
[5] Building level 7
[4] Building level 7
[0] Building level 7
[5] Building level 8
[4] Building level 8
[0] Building level 8
[5] Building level 9
[4] Building level 9
[0] Building level 9
[5] Building level 10
[4] Building level 10
[5] Building level 11
[0] Building level 10
[5] Building level 12
[4] Building level 11
[5] Building level 13
[5] Building level 14
[0] Building level 11
[4] Building level 12
[4] Building level 13
[0] Building level 12
[4] Building level 14
[0] Building level 13
[0] Building level 14
14 Level construction complete
initial dot_x = 8.98718e+08
Iter #1 residual = 0.0043536
Iter #2 residual = 0.00533468
Iter #3 residual = 0.00270725
Iter #4 residual = 0.00375637
Iter #5 residual = 0.0022126
GMRES:  Solving for topLevelCorr, Initial residual = 0.771612, Final residual = 0.81426, No Iterations 200
Iter #6 residual = 0.000608394
GMRES:  Solving for topLevelCorr, Initial residual = 0.914339, Final residual = 1.16505, No Iterations 200
Iter #7 residual = 0.000646913
Iter #8 residual = 0.00483682
Iter #9 residual = 0.00444067
Iter #10 residual = 0.00618193
Iter #11 residual = 0.0035515
Iter #12 residual = 0.00214078
Iter #13 residual = 0.00550955
Iter #14 residual = 0.00360012
Iter #15 residual = 0.00204236
Iter #16 residual = 0.000706557
Iter #17 residual = 0.0012282
Iter #18 residual = 0.00204725
Iter #19 residual = 0.00214125
Iter #20 residual = 0.00104046
Iter #21 residual = 0.00117613
Iter #22 residual = 0.00229061
Iter #23 residual = 0.00138916
Iter #24 residual = 0.000953858
Iter #25 residual = 0.000394733
Iter #26 residual = 0.000367092
Iter #27 residual = 0.000278502
Iter #28 residual = 0.000532198
Iter #29 residual = 0.000394423
Iter #30 residual = 0.000286197
Iter #31 residual = 0.000120494
Iter #32 residual = 0.000286842
Iter #33 residual = 0.00017192
Iter #34 residual = 0.000105323
Iter #35 residual = 7.37844e-05
Iter #36 residual = 5.95768e-05
Iter #37 residual = 4.66873e-05
Iter #38 residual = 3.77227e-05
Iter #39 residual = 4.01492e-05
Iter #40 residual = 4.64429e-05
Iter #41 residual = 0.000140778
Iter #42 residual = 9.0411e-05
Iter #43 residual = 6.21107e-05
Iter #44 residual = 3.63646e-05
Iter #45 residual = 4.75045e-05
Iter #46 residual = 3.13471e-05
Iter #47 residual = 4.73984e-05
Iter #48 residual = 3.04622e-05
Iter #49 residual = 6.85611e-05
Iter #50 residual = 4.08402e-05
GPU: 50 iters: 10.4315 s: 2.09126 GB/s
GPUAMG:  Solving for pd, Initial residual = 0.00533195, Final residual = 3.622e-05, No Iterations 50
time step continuity errors : sum local = 1.72711e-09, global = 1.37951e-11, cumulative = -7.65342e-08
ExecutionTime = 381.43 s  ClockTime = 411 s

Courant Number mean: 2.9313e-05 max: 0.0256057 velocity magnitude: 0.200047
Time = 0.007

MULES: Solving for alpha1
Liquid phase volume fraction = 0.00275429  Min(alpha1) = -1.30419e-29  Max(alpha1) = 1
MULES: Solving for alpha1
Liquid phase volume fraction = 0.00275429  Min(alpha1) = -1.10064e-30  Max(alpha1) = 1
[5] Building level 0
[4] Building level 0
[2] Building level 0
[0] Building level 0
[3] Building level 0
[1] Building level 0
[3] Building level 1
[1] Building level 1
[2] Building level 1
[5] Building level 1
[0] Building level 1
Reconstruction on level 1
[4] Building level 1
[3] Building level 2
[2] Building level 2
[3] Building level 3
[2] Building level 3
[2] Building level 4
[3] Building level 4
[3] Building level 5
[2] Building level 5
[1] Building level 2
[5] Building level 2
Creating AMGLevel 
[4] Building level 2
[0] Building level 2
Reconstruction on level 2
[3] Building level 6
[2] Building level 6
[3] Building level 7
[2] Building level 7
[3] Building level 8
[2] Building level 8
[3] Building level 9
[3] Building level 10
[2] Building level 9
[3] Building level 11
[3] Building level 12
[3] Building level 13
[2] Building level 10
[3] Building level 14
[2] Building level 11
[2] Building level 12
[2] Building level 13
[2] Building level 14
[1] Building level 3
[5] Building level 3
[4] Building level 3
Creating AMGLevel 
[0] Building level 3
Reconstruction on level 3
[5] Building level 4
[1] Building level 4
Creating AMGLevel 
[4] Building level 4
[0] Building level 4
Reconstruction on level 4
[5] Building level 5
[1] Building level 5
Creating AMGLevel 
[0] Building level 5
Reconstruction on level 5
[4] Building level 5
[5] Building level 6
[1] Building level 6
Creating AMGLevel 
[0] Building level 6
Reconstruction on level 6
[5] Building level 7
[4] Building level 6
[1] Building level 7
[5] Building level 8
Creating AMGLevel 
[0] Building level 7
Reconstruction on level 7
[5] Building level 9
[1] Building level 8
[5] Building level 10
[5] Building level 11
[5] Building level 12
[5] Building level 13
[5] Building level 14
Creating AMGLevel 
[0] Building level 8
Reconstruction on level 8
[1] Building level 9
[4] Building level 7
[1] Building level 10
Creating AMGLevel 
[0] Building level 9
Reconstruction on level 9
[1] Building level 11
[1] Building level 12
Creating AMGLevel 
[0] Building level 10
Reconstruction on level 10
[1] Building level 13
[1] Building level 14
Creating AMGLevel 
[0] Building level 11
Reconstruction on level 11
Creating AMGLevel 
[0] Building level 12
Reconstruction on level 12
[4] Building level 8
Creating AMGLevel 
[0] Building level 13
Reconstruction on level 13
Creating AMGLevel 
[0] Building level 14
Reconstruction on level 14
Creating AMGLevel 
14 Level construction complete
[4] Building level 9
[4] Building level 10
[4] Building level 11
[4] Building level 12
[4] Building level 13
[4] Building level 14
initial dot_x = 2.27772e+09
Iter #1 residual = 0.0328835
Iter #2 residual = 0.0248498
Iter #3 residual = 0.0147785
Iter #4 residual = 0.023434
Iter #5 residual = 0.0230013
Iter #6 residual = 0.0251821
Iter #7 residual = 0.0164487
Iter #8 residual = 0.0221639
Iter #9 residual = 0.0109915
Iter #10 residual = 0.0211752
Iter #11 residual = 0.0313572
Iter #12 residual = 0.0128249
Iter #13 residual = 0.0217119
Iter #14 residual = 0.0211904
Iter #15 residual = 0.0079257
Iter #16 residual = 0.0275195
Iter #17 residual = 0.0169734
Iter #18 residual = 0.00627245
Iter #19 residual = 0.00594282
Iter #20 residual = 0.00245453
Iter #21 residual = 0.00436515
Iter #22 residual = 0.00317004
Iter #23 residual = 0.00426959
Iter #24 residual = 0.00473707
Iter #25 residual = 0.00253428
Iter #26 residual = 0.00391703
Iter #27 residual = 0.0029675
Iter #28 residual = 0.000915016
Iter #29 residual = 0.00367546
Iter #30 residual = 0.00294313
Iter #31 residual = 0.00913276
Iter #32 residual = 0.00487664
Iter #33 residual = 0.00373417
Iter #34 residual = 0.00189956
Iter #35 residual = 0.00285658
Iter #36 residual = 0.00207064
Iter #37 residual = 0.0106348
Iter #38 residual = 0.00600093
Iter #39 residual = 0.00226903
Iter #40 residual = 0.00144901
Iter #41 residual = 0.00131011
Iter #42 residual = 0.00105769
Iter #43 residual = 0.0043752
Iter #44 residual = 0.00282825
Iter #45 residual = 0.00163639
Iter #46 residual = 0.00333491
Iter #47 residual = 0.00193563
Iter #48 residual = 0.00132038
Iter #49 residual = 0.00116506
Iter #50 residual = 0.000702412
GPU: 50 iters: 10.6956 s: 2.03963 GB/s
GPUAMG:  Solving for pd, Initial residual = 0.00807284, Final residual = 0.00069539, No Iterations 50
[5] Building level 0
[0] Building level 0
[2] Building level 0
[1] Building level 0
[3] Building level 0
[4] Building level 0
[3] Building level 1
[1] Building level 1
[2] Building level 1
[4] Building level 1
[5] Building level 1
[0] Building level 1
[3] Building level 2
[4] Building level 2
[2] Building level 2
[1] Building level 2
[5] Building level 2
[0] Building level 2
[3] Building level 3
[2] Building level 3
[1] Building level 3
[4] Building level 3
[5] Building level 3
[0] Building level 3
[3] Building level 4
[2] Building level 4
[1] Building level 4
[4] Building level 4
[5] Building level 4
[3] Building level 5
[0] Building level 4
[2] Building level 5
[3] Building level 6
[1] Building level 5
[4] Building level 5
[5] Building level 5
[3] Building level 7
[2] Building level 6
[0] Building level 5
[3] Building level 8
[3] Building level 9
[3] Building level 10
[3] Building level 11
[3] Building level 12
[3] Building level 13
[3] Building level 14
[2] Building level 7
[4] Building level 6
[1] Building level 6
[5] Building level 6
[2] Building level 8
[2] Building level 9
[4] Building level 7
[0] Building level 6
[2] Building level 10
[1] Building level 7
[2] Building level 11
[2] Building level 12
[2] Building level 13
[2] Building level 14
[5] Building level 7
[4] Building level 8
[1] Building level 8
[4] Building level 9
[1] Building level 9
[5] Building level 8
[4] Building level 10
[1] Building level 10
[0] Building level 7
[4] Building level 11
[1] Building level 11
[4] Building level 12
[4] Building level 13
[1] Building level 12
[4] Building level 14
[1] Building level 13
[5] Building level 9
[1] Building level 14
[5] Building level 10
[5] Building level 11
[5] Building level 12
[5] Building level 13
[5] Building level 14
[0] Building level 8
[0] Building level 9
[0] Building level 10
[0] Building level 11
[0] Building level 12
[0] Building level 13
[0] Building level 14
14 Level construction complete
initial dot_x = 1.25012e+09
Iter #1 residual = 0.00230929
Iter #2 residual = 0.00166173
Iter #3 residual = 0.00114985
Iter #4 residual = 0.00429433
Iter #5 residual = 0.00289295
Iter #6 residual = 0.00207832
Iter #7 residual = 0.00084169
Iter #8 residual = 0.00193763
Iter #9 residual = 0.00129882
Iter #10 residual = 0.00111656
Iter #11 residual = 0.0012357
Iter #12 residual = 0.000780695
Iter #13 residual = 0.00205578
Iter #14 residual = 0.0013478
Iter #15 residual = 0.000669502
Iter #16 residual = 0.000376134
Iter #17 residual = 0.000369518
Iter #18 residual = 0.000963814
Iter #19 residual = 0.000662554
Iter #20 residual = 0.000874582
Iter #21 residual = 0.000593496
GPU: 21 iters: 4.63228 s: 1.97793 GB/s
GPUAMG:  Solving for pd, Initial residual = 0.00498435, Final residual = 0.000155057, No Iterations 21
[1] Building level 0
[3] Building level 0
[4] Building level 0
[0] Building level 0
[2] Building level 0
[5] Building level 0
[3] Building level 1
[1] Building level 1
[2] Building level 1
[5] Building level 1
[4] Building level 1
[0] Building level 1
[3] Building level 2
[4] Building level 2
[1] Building level 2
[2] Building level 2
[5] Building level 2
[0] Building level 2
[3] Building level 3
[2] Building level 3
[1] Building level 3
[4] Building level 3
[5] Building level 3
[0] Building level 3
[3] Building level 4
[2] Building level 4
[1] Building level 4
[4] Building level 4
[5] Building level 4
[0] Building level 4
[3] Building level 5
[2] Building level 5
[3] Building level 6
[1] Building level 5
[4] Building level 5
[5] Building level 5
[3] Building level 7
[2] Building level 6
[0] Building level 5
[3] Building level 8
[3] Building level 9
[3] Building level 10
[3] Building level 11
[3] Building level 12
[3] Building level 13
[3] Building level 14
[4] Building level 6
[2] Building level 7
[1] Building level 6
[2] Building level 8
[5] Building level 6
[2] Building level 9
[4] Building level 7
[2] Building level 10
[2] Building level 11
[1] Building level 7
[2] Building level 12
[2] Building level 13
[2] Building level 14
[0] Building level 6
[4] Building level 8
[1] Building level 8
[5] Building level 7
[4] Building level 9
[1] Building level 9
[4] Building level 10
[4] Building level 11
[4] Building level 12
[1] Building level 10
[4] Building level 13
[4] Building level 14
[1] Building level 11
[1] Building level 12
[5] Building level 8
[1] Building level 13
[1] Building level 14
[0] Building level 7
[5] Building level 9
[5] Building level 10
[5] Building level 11
[5] Building level 12
[5] Building level 13
[5] Building level 14
[0] Building level 8
[0] Building level 9
[0] Building level 10
[0] Building level 11
[0] Building level 12
[0] Building level 13
[0] Building level 14
14 Level construction complete
initial dot_x = 1.87264e+09
Iter #1 residual = 0.000993388
Iter #2 residual = 0.000901708
Iter #3 residual = 0.000741486
Iter #4 residual = 0.000918608
Iter #5 residual = 0.00153274
Iter #6 residual = 0.00155574
Iter #7 residual = 0.000628002
Iter #8 residual = 0.00119935
Iter #9 residual = 0.00154146
Iter #10 residual = 0.000548689
Iter #11 residual = 0.000853609
Iter #12 residual = 0.000567857
Iter #13 residual = 0.000318861
Iter #14 residual = 0.000236138
Iter #15 residual = 0.000357298
Iter #16 residual = 0.00026733
Iter #17 residual = 0.000567002
Iter #18 residual = 0.00036304
Iter #19 residual = 0.000374155
Iter #20 residual = 0.000359414
Iter #21 residual = 0.000907526
Iter #22 residual = 0.000548005
Iter #23 residual = 0.000261781
Iter #24 residual = 0.000259795
Iter #25 residual = 0.000413671
Iter #26 residual = 0.000166322
Iter #27 residual = 0.000347113
Iter #28 residual = 0.000429704
Iter #29 residual = 0.000111443
Iter #30 residual = 7.74532e-05
Iter #31 residual = 8.51955e-05
Iter #32 residual = 6.36033e-05
Iter #33 residual = 5.91766e-05
Iter #34 residual = 6.63626e-05
Iter #35 residual = 5.0025e-05
Iter #36 residual = 6.34777e-05
Iter #37 residual = 5.46728e-05
Iter #38 residual = 6.76628e-05
Iter #39 residual = 5.95882e-05
Iter #40 residual = 5.85067e-05
Iter #41 residual = 6.22071e-05
Iter #42 residual = 5.57006e-05
Iter #43 residual = 5.41716e-05
[...]

Courant Number mean: 3.95063e-05 max: 0.00903198 velocity magnitude: 0.140367
Time = 0.009

MULES: Solving for alpha1
Liquid phase volume fraction = 0.00275429  Min(alpha1) = -4.41004e-30  Max(alpha1) = 1
MULES: Solving for alpha1
Liquid phase volume fraction = 0.00275429  Min(alpha1) = -8.04933e-30  Max(alpha1) = 1
[0] Building level 0
[1] Building level 0
[5] Building level 0
[3] Building level 0
[4] Building level 0
[2] Building level 0
[3] Building level 1
[2] Building level 1
[1] Building level 1
[5] Building level 1
[0] Building level 1
[4] Building level 1
[3] Building level 2
[2] Building level 2
[0] Building level 2
Reconstruction on level 2
[3] Building level 3
[2] Building level 3
[3] Building level 4
[2] Building level 4
Creating AMGLevel 
[0] Building level 3
Reconstruction on level 3
[3] Building level 5
[2] Building level 5
[5] Building level 2
[4] Building level 2
[1] Building level 2
[3] Building level 6
[2] Building level 6
Creating AMGLevel 
[0] Building level 4
Reconstruction on level 4
[3] Building level 7
[2] Building level 7
[3] Building level 8
[3] Building level 9
[2] Building level 8
[3] Building level 10
[3] Building level 11
[3] Building level 12
[2] Building level 9
[3] Building level 13
[3] Building level 14
[2] Building level 10
[2] Building level 11
[2] Building level 12
[2] Building level 13
[2] Building level 14
Creating AMGLevel 
[0] Building level 5
Reconstruction on level 5
[5] Building level 3
[1] Building level 3
[4] Building level 3
Creating AMGLevel 
[0] Building level 6
Reconstruction on level 6
Creating AMGLevel 
[0] Building level 7
Reconstruction on level 7
Creating AMGLevel 
[0] Building level 8
Reconstruction on level 8
Creating AMGLevel 
[0] Building level 9
Reconstruction on level 9
Creating AMGLevel 
[0] Building level 10
Reconstruction on level 10
Creating AMGLevel 
[0] Building level 11
Reconstruction on level 11
Creating AMGLevel 
[0] Building level 12
Reconstruction on level 12
Creating AMGLevel 
[0] Building level 13
Reconstruction on level 13
Creating AMGLevel 
[0] Building level 14
Reconstruction on level 14
Creating AMGLevel 
14 Level construction complete
[5] Building level 4
[1] Building level 4
[4] Building level 4
[5] Building level 5
[1] Building level 5
[4] Building level 5
[5] Building level 6
[1] Building level 6
[5] Building level 7
[5] Building level 8
[4] Building level 6
[1] Building level 7
[5] Building level 9
[5] Building level 10
[5] Building level 11
[5] Building level 12
[1] Building level 8
[5] Building level 13
[5] Building level 14
[1] Building level 9
[1] Building level 10
[4] Building level 7
[1] Building level 11
[1] Building level 12
[1] Building level 13
[1] Building level 14
[4] Building level 8
[4] Building level 9
[4] Building level 10
[4] Building level 11
[4] Building level 12
[4] Building level 13
[4] Building level 14
initial dot_x = 1.16966e+09
Iter #1 residual = 0.0214081
Iter #2 residual = 0.0161018
Iter #3 residual = 0.0150787
Iter #4 residual = 0.0106411
Iter #5 residual = 0.00656539
Iter #6 residual = 0.00837903
Iter #7 residual = 0.00449037
Iter #8 residual = 0.00227841
Iter #9 residual = 0.00182369
Iter #10 residual = 0.00149765
Iter #11 residual = 0.00187915
Iter #12 residual = 0.00145429
Iter #13 residual = 0.00179164
Iter #14 residual = 0.00130452
Iter #15 residual = 0.00132748
Iter #16 residual = 0.00108993
Iter #17 residual = 0.000873017
Iter #18 residual = 0.000976703
Iter #19 residual = 0.000861691
Iter #20 residual = 0.00111512
Iter #21 residual = 0.000936535
Iter #22 residual = 0.00122105
Iter #23 residual = 0.000911908
GPU: 23 iters: 5.04546 s: 1.9889 GB/s
GPUAMG:  Solving for pd, Initial residual = 0.00864747, Final residual = 0.000408678, No Iterations 23
[0] Building level 0
[2] Building level 0
[4] Building level 0
[1] Building level 0
[5] Building level 0
[3] Building level 0
[1] Building level 1
[3] Building level 1
[2] Building level 1
[5] Building level 1
[4] Building level 1
[0] Building level 1
[3] Building level 2
[1] Building level 2
[4] Building level 2
[2] Building level 2
[5] Building level 2
[0] Building level 2
[3] Building level 3
[2] Building level 3
[4] Building level 3
[1] Building level 3
[5] Building level 3
[0] Building level 3
[2] Building level 4
[3] Building level 4
[4] Building level 4
[1] Building level 4
[5] Building level 4
[0] Building level 4
[2] Building level 5
[3] Building level 5
[4] Building level 5
[1] Building level 5
[2] Building level 6
[5] Building level 5
[3] Building level 6
[1] Building level 6
[4] Building level 6
[0] Building level 5
[2] Building level 7
[3] Building level 7
[4] Building level 7
[2] Building level 8
[1] Building level 7
[3] Building level 8
[2] Building level 9
[5] Building level 6
[2] Building level 10
[1] Building level 8
[3] Building level 9
[4] Building level 8
[2] Building level 11
[2] Building level 12
[2] Building level 13
[2] Building level 14
[3] Building level 10
[3] Building level 11
[1] Building level 9
[3] Building level 12
[4] Building level 9
[3] Building level 13
[3] Building level 14
[1] Building level 10
[4] Building level 10
[1] Building level 11
[4] Building level 11
[1] Building level 12
[1] Building level 13
[4] Building level 12
[1] Building level 14
[4] Building level 13
[4] Building level 14
[0] Building level 6
[5] Building level 7
[5] Building level 8
[5] Building level 9
[0] Building level 7
[5] Building level 10
[5] Building level 11
[5] Building level 12
[5] Building level 13
[5] Building level 14
[0] Building level 8
[0] Building level 9
[0] Building level 10
[0] Building level 11
[0] Building level 12
[0] Building level 13
[0] Building level 14
14 Level construction complete
initial dot_x = 4.58877e+08
Iter #1 residual = 0.00469212
Iter #2 residual = 0.00302718
Iter #3 residual = 0.00161417
Iter #4 residual = 0.0023027
Iter #5 residual = 0.00148264
Iter #6 residual = 0.000975825
Iter #7 residual = 0.000512426
Iter #8 residual = 0.000374218
Iter #9 residual = 0.000424593
Iter #10 residual = 0.000325437
Iter #11 residual = 0.000874459
Iter #12 residual = 0.000565818
Iter #13 residual = 0.000315458
Iter #14 residual = 0.000652924
Iter #15 residual = 0.000557012
Iter #16 residual = 0.000311703
GPU: 16 iters: 3.58299 s: 1.94832 GB/s
GPUAMG:  Solving for pd, Initial residual = 0.00499415, Final residual = 0.00010334, No Iterations 16
[5] Building level 0
[1] Building level 0
[3] Building level 0
[4] Building level 0
[0] Building level 0
[2] Building level 0
[1] Building level 1
[2] Building level 1
[3] Building level 1
[5] Building level 1
[0] Building level 1
[4] Building level 1
[3] Building level 2
[4] Building level 2
[1] Building level 2
[2] Building level 2
[5] Building level 2
[0] Building level 2
[3] Building level 3
[2] Building level 3
[4] Building level 3
[1] Building level 3
[5] Building level 3
[0] Building level 3
[2] Building level 4
[4] Building level 4
[3] Building level 4
[1] Building level 4
[5] Building level 4
[0] Building level 4
[2] Building level 5
[4] Building level 5
[3] Building level 5
[1] Building level 5
[5] Building level 5
[2] Building level 6
[4] Building level 6
[3] Building level 6
[0] Building level 5
[1] Building level 6
[2] Building level 7
[4] Building level 7
[3] Building level 7
[5] Building level 6
[2] Building level 8
[4] Building level 8
[3] Building level 8
[1] Building level 7
[2] Building level 9
[2] Building level 10
[4] Building level 9
[3] Building level 9
[2] Building level 11
[2] Building level 12
[4] Building level 10
[2] Building level 13
[2] Building level 14
[3] Building level 10
[4] Building level 11
[4] Building level 12
[3] Building level 11
[4] Building level 13
[4] Building level 14
[3] Building level 12
[1] Building level 8
[3] Building level 13
[3] Building level 14
[5] Building level 7
[1] Building level 9
[0] Building level 6
[1] Building level 10
[1] Building level 11
[1] Building level 12
[1] Building level 13
[1] Building level 14
[5] Building level 8
[5] Building level 9
[5] Building level 10
[5] Building level 11
[0] Building level 7
[5] Building level 12
[5] Building level 13
[5] Building level 14
[0] Building level 8
[0] Building level 9
[0] Building level 10
[0] Building level 11
[0] Building level 12
[0] Building level 13
[0] Building level 14
14 Level construction complete
initial dot_x = 1.01498e+09
Iter #1 residual = 0.000462619
Iter #2 residual = 0.000288945
Iter #3 residual = 0.000249161
Iter #4 residual = 0.000135585
Iter #5 residual = 0.000176568
Iter #6 residual = 0.000131666
Iter #7 residual = 7.33316e-05
Iter #8 residual = 6.3594e-05
Iter #9 residual = 4.04196e-05
Iter #10 residual = 0.000122461
Iter #11 residual = 8.15173e-05
Iter #12 residual = 6.31354e-05
Iter #13 residual = 4.56211e-05
Iter #14 residual = 3.13841e-05
Iter #15 residual = 2.81168e-05
Iter #16 residual = 3.55347e-05
Iter #17 residual = 9.67237e-05
Iter #18 residual = 6.29185e-05
Iter #19 residual = 4.30749e-05
Iter #20 residual = 4.98594e-05
Iter #21 residual = 4.22668e-05
Iter #22 residual = 2.05338e-05
Iter #23 residual = 1.3198e-05
Iter #24 residual = 1.59997e-05
Iter #25 residual = 2.36063e-05
Iter #26 residual = 1.80462e-05
Iter #27 residual = 3.30295e-05
Iter #28 residual = 3.09834e-05
Iter #29 residual = 2.71606e-05
Iter #30 residual = 2.19874e-05
Iter #31 residual = 3.26979e-05
Iter #32 residual = 2.24261e-05
Iter #33 residual = 4.08162e-05
Iter #34 residual = 3.71797e-05
Iter #35 residual = 2.89839e-05
Iter #36 residual = 2.07812e-05
Iter #37 residual = 3.21665e-05
Iter #38 residual = 2.74157e-05
Iter #39 residual = 2.16992e-05
Iter #40 residual = 9.95419e-06
Iter #41 residual = 1.17171e-05
Iter #42 residual = 8.59787e-06
Iter #43 residual = 5.09977e-06
Iter #44 residual = 7.04793e-06
Iter #45 residual = 4.7275e-06
Iter #46 residual = 9.10378e-06
Iter #47 residual = 7.49134e-06
Iter #48 residual = 2.64e-06
Iter #49 residual = 1.16925e-05
Iter #50 residual = 8.01568e-06
GPU: 50 iters: 10.7311 s: 2.03289 GB/s
GPUAMG:  Solving for pd, Initial residual = 0.00441526, Final residual = 4.65576e-06, No Iterations 50
time step continuity errors : sum local = 2.27359e-10, global = 2.62697e-12, cumulative = -7.62332e-08
ExecutionTime = 551.23 s  ClockTime = 587 s

Courant Number mean: 4.46253e-05 max: 0.00971295 velocity magnitude: 0.149362
Time = 0.01

MULES: Solving for alpha1
Liquid phase volume fraction = 0.00275429  Min(alpha1) = -1.51952e-29  Max(alpha1) = 1
MULES: Solving for alpha1
Liquid phase volume fraction = 0.00275429  Min(alpha1) = -2.13612e-29  Max(alpha1) = 1
[4] Building level 0
[3] Building level 0
[5] Building level 0
[1] Building level 0
[0] Building level 0
[2] Building level 0
[1] Building level 1
[3] Building level 1
[2] Building level 1
[5] Building level 1
[4] Building level 1
[0] Building level 1
[3] Building level 2
[2] Building level 2
[4] Building level 2
[0] Building level 2
Reconstruction on level 2
[3] Building level 3
[2] Building level 3
[3] Building level 4
Creating AMGLevel 
[2] Building level 4
[0] Building level 3
Reconstruction on level 3
[4] Building level 3
[3] Building level 5
[2] Building level 5
[5] Building level 2
[1] Building level 2
[4] Building level 4
Creating AMGLevel 
[3] Building level 6
[0] Building level 4
Reconstruction on level 4
[2] Building level 6
[3] Building level 7
[2] Building level 7
[3] Building level 8
[3] Building level 9
[2] Building level 8
[3] Building level 10
[3] Building level 11
[3] Building level 12
[2] Building level 9
[3] Building level 13
[3] Building level 14
[2] Building level 10
[2] Building level 11
[2] Building level 12
[4] Building level 5
[2] Building level 13
[2] Building level 14
Creating AMGLevel 
[0] Building level 5
Reconstruction on level 5
[5] Building level 3
[1] Building level 3
[4] Building level 6
Creating AMGLevel 
[0] Building level 6
Reconstruction on level 6
Creating AMGLevel 
[0] Building level 7
Reconstruction on level 7
[4] Building level 7
Creating AMGLevel 
[0] Building level 8
Reconstruction on level 8
[4] Building level 8
Creating AMGLevel 
[0] Building level 9
Reconstruction on level 9
Creating AMGLevel 
[0] Building level 10
Reconstruction on level 10
Creating AMGLevel 
[0] Building level 11
Reconstruction on level 11
[4] Building level 9
Creating AMGLevel 
[0] Building level 12
Reconstruction on level 12
Creating AMGLevel 
[0] Building level 13
Reconstruction on level 13
Creating AMGLevel 
[0] Building level 14
Reconstruction on level 14
Creating AMGLevel 
14 Level construction complete
[4] Building level 10
[5] Building level 4
[4] Building level 11
[4] Building level 12
[4] Building level 13
[4] Building level 14
[1] Building level 4
[5] Building level 5
[1] Building level 5
[5] Building level 6
[1] Building level 6
[5] Building level 7
[1] Building level 7
[5] Building level 8
[5] Building level 9
[1] Building level 8
[5] Building level 10
[5] Building level 11
[5] Building level 12
[5] Building level 13
[1] Building level 9
[5] Building level 14
[1] Building level 10
[1] Building level 11
[1] Building level 12
[1] Building level 13
[1] Building level 14
initial dot_x = 9.86912e+08
Iter #1 residual = 0.021976
Iter #2 residual = 0.0117106
Iter #3 residual = 0.00868739
Iter #4 residual = 0.0057128
Iter #5 residual = 0.00873311
Iter #6 residual = 0.00691533
Iter #7 residual = 0.0059165
Iter #8 residual = 0.00322053
Iter #9 residual = 0.00677556
Iter #10 residual = 0.00562125
Iter #11 residual = 0.00260733
Iter #12 residual = 0.00138194
Iter #13 residual = 0.00272522
Iter #14 residual = 0.00190037
Iter #15 residual = 0.000690787
Iter #16 residual = 0.000474555
GPU: 16 iters: 3.50985 s: 1.98892 GB/s
GPUAMG:  Solving for pd, Initial residual = 0.00921053, Final residual = 0.000408739, No Iterations 16
[1] Building level 0
[5] Building level 0
[0] Building level 0
[3] Building level 0
[4] Building level 0
[2] Building level 0
[3] Building level 1
[2] Building level 1
[1] Building level 1
[5] Building level 1
[0] Building level 1
[4] Building level 1
[3] Building level 2
[1] Building level 2
[2] Building level 2
[4] Building level 2
[5] Building level 2
[0] Building level 2
[3] Building level 3
[2] Building level 3
[4] Building level 3
[1] Building level 3
[5] Building level 3
[0] Building level 3
[3] Building level 4
[2] Building level 4
[1] Building level 4
[0] Building level 4
[4] Building level 4
[5] Building level 4
[3] Building level 5
[2] Building level 5
[1] Building level 5
[3] Building level 6
[2] Building level 6
[4] Building level 5
[0] Building level 5
[5] Building level 5
[3] Building level 7
[3] Building level 8
[2] Building level 7
[1] Building level 6
[3] Building level 9
[3] Building level 10
[3] Building level 11
[2] Building level 8
[3] Building level 12
[3] Building level 13
[3] Building level 14
[2] Building level 9
[4] Building level 6
[2] Building level 10
[0] Building level 6
[2] Building level 11
[1] Building level 7
[2] Building level 12
[2] Building level 13
[2] Building level 14
[5] Building level 6
[1] Building level 8
[1] Building level 9
[4] Building level 7
[0] Building level 7
[1] Building level 10
[5] Building level 7
[1] Building level 11
[1] Building level 12
[1] Building level 13
[1] Building level 14
[4] Building level 8
[0] Building level 8
[5] Building level 8
[4] Building level 9
[0] Building level 9
[5] Building level 9
[4] Building level 10
[0] Building level 10
[4] Building level 11
[0] Building level 11
[5] Building level 10
[4] Building level 12
[4] Building level 13
[0] Building level 12
[4] Building level 14
[0] Building level 13
[5] Building level 11
[0] Building level 14
14 Level construction complete
[5] Building level 12
[5] Building level 13
[5] Building level 14
initial dot_x = 7.26937e+08
Iter #1 residual = 0.00179527
Iter #2 residual = 0.00103434
Iter #3 residual = 0.000639092
Iter #4 residual = 0.000399432
Iter #5 residual = 0.000371878
Iter #6 residual = 0.000247074
Iter #7 residual = 0.000738884
Iter #8 residual = 0.000435294
Iter #9 residual = 0.000244375
GPU: 9 iters: 2.06173 s: 1.90458 GB/s
GPUAMG:  Solving for pd, Initial residual = 0.00470499, Final residual = 0.00017547, No Iterations 9
[1] Building level 0
[2] Building level 0
[3] Building level 0
[4] Building level 0
[5] Building level 0
[0] Building level 0
[1] Building level 1
[3] Building level 1
[2] Building level 1
[5] Building level 1
[0] Building level 1
[4] Building level 1
[3] Building level 2
[4] Building level 2
[2] Building level 2
[1] Building level 2
[5] Building level 2
[0] Building level 2
[3] Building level 3
[2] Building level 3
[4] Building level 3
[5] Building level 3
[1] Building level 3
[0] Building level 3
[3] Building level 4
[2] Building level 4
[1] Building level 4
[0] Building level 4
[4] Building level 4
[5] Building level 4
[3] Building level 5
[2] Building level 5
[1] Building level 5
[0] Building level 5
[3] Building level 6
[4] Building level 5
[5] Building level 5
[2] Building level 6
[3] Building level 7
[2] Building level 7
[1] Building level 6
[2] Building level 8
[3] Building level 8
[2] Building level 9
[0] Building level 6
[3] Building level 9
[2] Building level 10
[5] Building level 6
[4] Building level 6
[3] Building level 10
[2] Building level 11
[2] Building level 12
[3] Building level 11
[2] Building level 13
[2] Building level 14
[3] Building level 12
[3] Building level 13
[3] Building level 14
[1] Building level 7
[1] Building level 8
[5] Building level 7
[0] Building level 7
[1] Building level 9
[4] Building level 7
[1] Building level 10
[1] Building level 11
[1] Building level 12
[1] Building level 13
[1] Building level 14
[5] Building level 8
[0] Building level 8
[5] Building level 9
[4] Building level 8
[0] Building level 9
[5] Building level 10
[0] Building level 10
[5] Building level 11
[0] Building level 11
[5] Building level 12
[4] Building level 9
[5] Building level 13
[5] Building level 14
[0] Building level 12
[0] Building level 13
[0] Building level 14
14 Level construction complete
[4] Building level 10
[4] Building level 11
[4] Building level 12
[4] Building level 13
[4] Building level 14
initial dot_x = 7.56805e+08
Iter #1 residual = 0.000473444
Iter #2 residual = 0.000530876
Iter #3 residual = 0.000337201
Iter #4 residual = 0.00136692
Iter #5 residual = 0.000757167
Iter #6 residual = 0.000369463
Iter #7 residual = 0.000243623
Iter #8 residual = 0.000175009
Iter #9 residual = 0.000247999
Iter #10 residual = 0.000176924
Iter #11 residual = 0.000808764
Iter #12 residual = 0.000442477
Iter #13 residual = 0.000228194
Iter #14 residual = 0.000254443
Iter #15 residual = 0.000166854
Iter #16 residual = 9.39926e-05
Iter #17 residual = 7.86704e-05
Iter #18 residual = 9.28599e-05
Iter #19 residual = 9.26339e-05
Iter #20 residual = 8.20642e-05
Iter #21 residual = 0.000152874
Iter #22 residual = 0.000168853
Iter #23 residual = 8.69925e-05
Iter #24 residual = 9.32263e-05
Iter #25 residual = 8.55939e-05
Iter #26 residual = 8.56563e-05
Iter #27 residual = 9.53349e-05
Iter #28 residual = 8.50617e-05
Iter #29 residual = 8.09271e-05
Iter #30 residual = 8.10256e-05
Iter #31 residual = 8.86679e-05
Iter #32 residual = 8.20616e-05
Iter #33 residual = 9.29294e-05
Iter #34 residual = 7.69728e-05
Iter #35 residual = 9.54731e-05
Iter #36 residual = 8.66854e-05
Iter #37 residual = 9.71446e-05
Iter #38 residual = 8.54425e-05
Iter #39 residual = 0.000102569
Iter #40 residual = 7.95854e-05
Iter #41 residual = 7.19009e-05
Iter #42 residual = 8.09411e-05
Iter #43 residual = 8.22155e-05
Iter #44 residual = 9.06901e-05
Iter #45 residual = 9.81884e-05
Iter #46 residual = 9.98144e-05
Iter #47 residual = 9.22241e-05
Iter #48 residual = 8.54078e-05
Iter #49 residual = 0.000166603
Iter #50 residual = 0.000116755
GPU: 50 iters: 10.597 s: 2.05862 GB/s
GPUAMG:  Solving for pd, Initial residual = 0.00442977, Final residual = 0.00014805, No Iterations 50
time step continuity errors : sum local = 7.28305e-09, global = -4.21929e-11, cumulative = -7.62754e-08
ExecutionTime = 602.19 s  ClockTime = 640 s

End

Finalising parallel run
