 Data for JOB [58513,1] offset 0

 ========================   JOB MAP   ========================

 Data for node: ivb106	Num slots: 2	Max slots: 0	Num procs: 2
 	Process OMPI jobid: [58513,1] App: 0 Process rank: 0
 	Process OMPI jobid: [58513,1] App: 0 Process rank: 1

 Data for node: ivb108	Num slots: 2	Max slots: 0	Num procs: 2
 	Process OMPI jobid: [58513,1] App: 0 Process rank: 2
 	Process OMPI jobid: [58513,1] App: 0 Process rank: 3

 =============================================================
[ivb106:28419] MCW rank 1 bound to socket 0[core 1[hwt 0]]: [./B/./././././././.][./././././././././.]
[ivb106:28419] MCW rank 0 bound to socket 0[core 0[hwt 0]]: [B/././././././././.][./././././././././.]
[ivb108:14757] MCW rank 3 bound to socket 0[core 1[hwt 0]]: [./B/./././././././.][./././././././././.]
[ivb108:14757] MCW rank 2 bound to socket 0[core 0[hwt 0]]: [B/././././././././.][./././././././././.]
0
1
1
0
/*---------------------------------------------------------------------------*\
| =========                 |                                                 |
| \\      /  F ield         | foam-extend: Open Source CFD                    |
|  \\    /   O peration     | Version:     3.1                                |
|   \\  /    A nd           | Web:         http://www.extend-project.de       |
|    \\/     M anipulation  |                                                 |
\*---------------------------------------------------------------------------*/
Build    : 3.1-e2da948002a2
Exec     : interFoam -parallel
Date     : May 21 2016
Time     : 09:52:27
Host     : ivb106
PID      : 28447
CtrlDict : /home-2/vplatonov/foam/foam-extend-3.1/etc/controlDict
Case     : /home/vplatonov/tests/rt12mln
nProcs   : 4
Slaves : 
3
(
ivb106.28448
ivb108.14787
ivb108.14785
)

Pstream initialized with:
    floatTransfer     : 0
    nProcsSimpleSum   : 0
    commsType         : blocking
SigFpe   : Enabling floating point exception trapping (FOAM_SIGFPE).

// * * * * * * * * * * * * * * * * * * * * * * * * * * * * * * * * * * * * * //
Create time

Create mesh for time = 0


Reading g
Reading field pd

Reading field alpha1

Reading field U

Reading/calculating face flux field phi

Reading transportProperties

Selecting incompressible transport model Newtonian
Selecting incompressible transport model Newtonian
Calculating field g.h

Selecting turbulence model type laminar
time step continuity errors : sum local = 0, global = 0, cumulative = 0
Created persistent data with name pcorr
GPUAMG:  Solving for pcorr, Initial residual = 0, Final residual = 0, No Iterations 0
time step continuity errors : sum local = 0, global = 0, cumulative = 0
Courant Number mean: 0 max: 0 velocity magnitude: 0

Starting time loop

Courant Number mean: 0 max: 0 velocity magnitude: 0
Time = 0.001

MULES: Solving for alpha1
Liquid phase volume fraction = 0.00275421  Min(alpha1) = 0  Max(alpha1) = 1
MULES: Solving for alpha1
Liquid phase volume fraction = 0.00275421  Min(alpha1) = 0  Max(alpha1) = 1
Created persistent data with name pd
[1] Building level 0
[0] Building level 0
[2] Building level 0
[3] Building level 0
Creating AMGLevel 
[0] Building level 1
[1] Building level 1
[3] Building level 1
[2] Building level 1
Creating AMGLevel 
[0] Building level 2
[1] Building level 2
[3] Building level 2
[2] Building level 2
Creating AMGLevel 
[0] Building level 3
[1] Building level 3
[3] Building level 3
[2] Building level 3
Creating AMGLevel 
[0] Building level 4
[1] Building level 4
[2] Building level 4
[3] Building level 4
Creating AMGLevel 
[0] Building level 5
[1] Building level 5
[2] Building level 5
[3] Building level 5
Creating AMGLevel 
[0] Building level 6
[1] Building level 6
[2] Building level 6
[3] Building level 6
Creating AMGLevel 
[0] Building level 7
[1] Building level 7
Creating AMGLevel 
[0] Building level 8
[2] Building level 7
[3] Building level 7
Creating AMGLevel 
[0] Building level 9
[1] Building level 8
Creating AMGLevel 
[0] Building level 10
[2] Building level 8
[3] Building level 8
Creating AMGLevel 
[0] Building level 11
[1] Building level 9
Creating AMGLevel 
[0] Building level 12
Creating AMGLevel 
[0] Building level 13
Creating AMGLevel 
[0] Building level 14
[1] Building level 10
Creating AMGLevel 
14 Level construction complete
[2] Building level 9
[3] Building level 9
[1] Building level 11
[1] Building level 12
[2] Building level 10
[1] Building level 13
[3] Building level 10
[1] Building level 14
[2] Building level 11
[3] Building level 11
[2] Building level 12
[3] Building level 12
[2] Building level 13
[3] Building level 13
[2] Building level 14
[3] Building level 14
initial dot_x = 0
Iter #1 residual = 0.0732926
GPU: 1 iters: 0.422256 s: 1.54986 GB/s
GPUAMG:  Solving for pd, Initial residual = 1, Final residual = 0.0271102, No Iterations 1
[1] Building level 0
[0] Building level 0
[2] Building level 0
[3] Building level 0
[2] Building level 1
[0] Building level 1
[3] Building level 1
[1] Building level 1
[0] Building level 2
[1] Building level 2
[2] Building level 2
[3] Building level 2
[0] Building level 3
[1] Building level 3
[2] Building level 3
[3] Building level 3
[1] Building level 4
[2] Building level 4
[3] Building level 4
[0] Building level 4
[1] Building level 5
[2] Building level 5
[3] Building level 5
[0] Building level 5
[1] Building level 6
[2] Building level 6
[3] Building level 6
[0] Building level 6
[1] Building level 7
[2] Building level 7
[3] Building level 7
[0] Building level 7
[1] Building level 8
[2] Building level 8
[1] Building level 9
[2] Building level 9
[3] Building level 8
[1] Building level 10
[1] Building level 11
[0] Building level 8
[2] Building level 10
[1] Building level 12
[1] Building level 13
[1] Building level 14
[2] Building level 11
[2] Building level 12
[2] Building level 13
[3] Building level 9
[2] Building level 14
[0] Building level 9
[3] Building level 10
[3] Building level 11
[3] Building level 12
[0] Building level 10
[3] Building level 13
[3] Building level 14
[0] Building level 11
[0] Building level 12
[0] Building level 13
[0] Building level 14
14 Level construction complete
initial dot_x = 75593.5
Iter #1 residual = 0.00835598
Iter #2 residual = 0.00430121
Iter #3 residual = 0.00229656
Iter #4 residual = 0.00122691
GPU: 4 iters: 1.02107 s: 2.56372 GB/s
GPUAMG:  Solving for pd, Initial residual = 0.019502, Final residual = 0.000642491, No Iterations 4
[0] Building level 0
[1] Building level 0
[2] Building level 0
[3] Building level 0
[0] Building level 1
[1] Building level 1
[2] Building level 1
[3] Building level 1
[0] Building level 2
[1] Building level 2
[3] Building level 2
[2] Building level 2
[0] Building level 3
[1] Building level 3
[3] Building level 3
[2] Building level 3
[0] Building level 4
[1] Building level 4
[3] Building level 4
[2] Building level 4
[0] Building level 5
[1] Building level 5
[3] Building level 5
[2] Building level 5
[1] Building level 6
[0] Building level 6
[1] Building level 7
[0] Building level 7
[3] Building level 6
[2] Building level 6
[1] Building level 8
[0] Building level 8
[1] Building level 9
[0] Building level 9
[1] Building level 10
[0] Building level 10
[1] Building level 11
[0] Building level 11
[1] Building level 12
[1] Building level 13
[1] Building level 14
[0] Building level 12
[0] Building level 13
[0] Building level 14
14 Level construction complete
[3] Building level 7
[2] Building level 7
[3] Building level 8
[2] Building level 8
[3] Building level 9
[2] Building level 9
[3] Building level 10
[3] Building level 11
[3] Building level 12
[2] Building level 10
[3] Building level 13
[3] Building level 14
[2] Building level 11
[2] Building level 12
[2] Building level 13
[2] Building level 14
initial dot_x = 128174
Iter #1 residual = 0.00249742
Iter #2 residual = 0.00114304
Iter #3 residual = 0.000554337
Iter #4 residual = 0.000276848
Iter #5 residual = 0.000144392
Iter #6 residual = 8.17014e-05
Iter #7 residual = 5.0085e-05
Iter #8 residual = 3.08693e-05
Iter #9 residual = 1.97163e-05
Iter #10 residual = 1.26942e-05
Iter #11 residual = 8.34465e-06
Iter #12 residual = 5.54421e-06
Iter #13 residual = 3.76075e-06
Iter #14 residual = 2.62973e-06
Iter #15 residual = 1.92195e-06
Iter #16 residual = 1.43876e-06
Iter #17 residual = 1.11122e-06
Iter #18 residual = 8.74375e-07
Iter #19 residual = 6.94079e-07
Iter #20 residual = 5.61541e-07
Iter #21 residual = 4.49719e-07
Iter #22 residual = 3.72094e-07
Iter #23 residual = 2.97636e-07
Iter #24 residual = 2.51389e-07
Iter #25 residual = 1.99266e-07
Iter #26 residual = 1.77891e-07
Iter #27 residual = 1.33751e-07
Iter #28 residual = 1.33849e-07
GPU: 28 iters: 5.89865 s: 3.10652 GB/s
GPUAMG:  Solving for pd, Initial residual = 0.00621865, Final residual = 8.8195e-08, No Iterations 28
time step continuity errors : sum local = 6.55069e-12, global = -2.47327e-25, cumulative = -2.47327e-25
ExecutionTime = 86.83 s  ClockTime = 94 s

Courant Number mean: 4.8759e-06 max: 0.00216224 velocity magnitude: 0.033785
Time = 0.002

MULES: Solving for alpha1
Liquid phase volume fraction = 0.00275421  Min(alpha1) = 0  Max(alpha1) = 1
MULES: Solving for alpha1
Liquid phase volume fraction = 0.00275421  Min(alpha1) = 0  Max(alpha1) = 1
[1] Building level 0
[0] Building level 0
[2] Building level 0
[3] Building level 0
[0] Building level 1
Reconstruction on level 1
[1] Building level 1
[2] Building level 1
[3] Building level 1
Creating AMGLevel 
[1] Building level 2
[0] Building level 2
Reconstruction on level 2
[2] Building level 2
[3] Building level 2
[1] Building level 3
Creating AMGLevel 
[0] Building level 3
Reconstruction on level 3
[3] Building level 3
[2] Building level 3
[1] Building level 4
Creating AMGLevel 
[0] Building level 4
Reconstruction on level 4
[3] Building level 4
[2] Building level 4
[1] Building level 5
Creating AMGLevel 
[0] Building level 5
Reconstruction on level 5
[3] Building level 5
[2] Building level 5
[1] Building level 6
Creating AMGLevel 
[0] Building level 6
Reconstruction on level 6
[1] Building level 7
[3] Building level 6
[1] Building level 8
[2] Building level 6
Creating AMGLevel 
[0] Building level 7
Reconstruction on level 7
[1] Building level 9
[1] Building level 10
Creating AMGLevel 
[0] Building level 8
Reconstruction on level 8
[1] Building level 11
[1] Building level 12
[1] Building level 13
[1] Building level 14
Creating AMGLevel 
[0] Building level 9
Reconstruction on level 9
[3] Building level 7
[2] Building level 7
Creating AMGLevel 
[0] Building level 10
Reconstruction on level 10
Creating AMGLevel 
[0] Building level 11
Reconstruction on level 11
Creating AMGLevel 
[0] Building level 12
Reconstruction on level 12
Creating AMGLevel 
[0] Building level 13
Reconstruction on level 13
Creating AMGLevel 
[0] Building level 14
Reconstruction on level 14
Creating AMGLevel 
14 Level construction complete
[3] Building level 8
[2] Building level 8
[3] Building level 9
[2] Building level 9
[3] Building level 10
[2] Building level 10
[3] Building level 11
[2] Building level 11
[3] Building level 12
[2] Building level 12
[3] Building level 13
[3] Building level 14
[2] Building level 13
[2] Building level 14
initial dot_x = 114335
Iter #1 residual = 0.000819896
Iter #2 residual = 0.000412775
Iter #3 residual = 0.000225874
GPU: 3 iters: 0.891908 s: 2.20125 GB/s
GPUAMG:  Solving for pd, Initial residual = 0.0033594, Final residual = 0.000131194, No Iterations 3
[1] Building level 0
[0] Building level 0
[2] Building level 0
[3] Building level 0
[0] Building level 1
[1] Building level 1
[2] Building level 1
[3] Building level 1
[0] Building level 2
[1] Building level 2
[2] Building level 2
[3] Building level 2
[0] Building level 3
[1] Building level 3
[2] Building level 3
[3] Building level 3
[0] Building level 4
[1] Building level 4
[2] Building level 4
[3] Building level 4
[0] Building level 5
[1] Building level 5
[0] Building level 6
[1] Building level 6
[2] Building level 5
[0] Building level 7
[1] Building level 7
[3] Building level 5
[0] Building level 8
[1] Building level 8
[0] Building level 9
[0] Building level 10
[0] Building level 11
[1] Building level 9
[0] Building level 12
[0] Building level 13
[0] Building level 14
14 Level construction complete
[1] Building level 10
[1] Building level 11
[2] Building level 6
[1] Building level 12
[1] Building level 13
[1] Building level 14
[2] Building level 7
[3] Building level 6
[2] Building level 8
[2] Building level 9
[2] Building level 10
[2] Building level 11
[2] Building level 12
[2] Building level 13
[2] Building level 14
[3] Building level 7
[3] Building level 8
[3] Building level 9
[3] Building level 10
[3] Building level 11
[3] Building level 12
[3] Building level 13
[3] Building level 14
initial dot_x = 117853
Iter #1 residual = 0.000561124
Iter #2 residual = 0.000278605
Iter #3 residual = 0.00014186
GPU: 3 iters: 0.928644 s: 2.11417 GB/s
GPUAMG:  Solving for pd, Initial residual = 0.00212077, Final residual = 8.47935e-05, No Iterations 3
[1] Building level 0
[0] Building level 0
[3] Building level 0
[2] Building level 0
[0] Building level 1
[1] Building level 1
[2] Building level 1
[3] Building level 1
[0] Building level 2
[1] Building level 2
[2] Building level 2
[3] Building level 2
[0] Building level 3
[1] Building level 3
[2] Building level 3
[3] Building level 3
[0] Building level 4
[1] Building level 4
[2] Building level 4
[0] Building level 5
[3] Building level 4
[1] Building level 5
[0] Building level 6
[1] Building level 6
[2] Building level 5
[0] Building level 7
[1] Building level 7
[0] Building level 8
[3] Building level 5
[1] Building level 8
[0] Building level 9
[0] Building level 10
[1] Building level 9
[0] Building level 11
[0] Building level 12
[0] Building level 13
[0] Building level 14
14 Level construction complete
[1] Building level 10
[1] Building level 11
[1] Building level 12
[2] Building level 6
[1] Building level 13
[1] Building level 14
[2] Building level 7
[3] Building level 6
[2] Building level 8
[2] Building level 9
[2] Building level 10
[2] Building level 11
[2] Building level 12
[2] Building level 13
[2] Building level 14
[3] Building level 7
[3] Building level 8
[3] Building level 9
[3] Building level 10
[3] Building level 11
[3] Building level 12
[3] Building level 13
[3] Building level 14
initial dot_x = 116863
Iter #1 residual = 0.000868292
Iter #2 residual = 0.000547426
Iter #3 residual = 0.000295922
Iter #4 residual = 0.000198385
Iter #5 residual = 0.000147274
Iter #6 residual = 0.000117625
Iter #7 residual = 9.56745e-05
Iter #8 residual = 7.46536e-05
Iter #9 residual = 5.08644e-05
Iter #10 residual = 4.17355e-05
Iter #11 residual = 3.3969e-05
Iter #12 residual = 2.85394e-05
Iter #13 residual = 2.35939e-05
Iter #14 residual = 1.66695e-05
Iter #15 residual = 1.08547e-05
Iter #16 residual = 8.92955e-06
Iter #17 residual = 7.1084e-06
Iter #18 residual = 6.10181e-06
Iter #19 residual = 4.84678e-06
Iter #20 residual = 4.19562e-06
Iter #21 residual = 3.42063e-06
Iter #22 residual = 2.94868e-06
Iter #23 residual = 2.45168e-06
Iter #24 residual = 2.13491e-06
Iter #25 residual = 1.62418e-06
Iter #26 residual = 1.1509e-06
Iter #27 residual = 7.94403e-07
Iter #28 residual = 5.34649e-07
Iter #29 residual = 3.45104e-07
Iter #30 residual = 2.29447e-07
Iter #31 residual = 1.51019e-07
GPU: 31 iters: 7.40397 s: 2.74009 GB/s
GPUAMG:  Solving for pd, Initial residual = 0.0019386, Final residual = 9.24676e-08, No Iterations 31
time step continuity errors : sum local = 4.40501e-12, global = -3.80176e-25, cumulative = -6.27503e-25
ExecutionTime = 141.45 s  ClockTime = 150 s

Courant Number mean: 7.6767e-06 max: 0.00313308 velocity magnitude: 0.0489544
Time = 0.003

MULES: Solving for alpha1
Liquid phase volume fraction = 0.00275421  Min(alpha1) = -8.67353e-31  Max(alpha1) = 1
MULES: Solving for alpha1
Liquid phase volume fraction = 0.00275421  Min(alpha1) = -6.83548e-30  Max(alpha1) = 1
[1] Building level 0
[0] Building level 0
[3] Building level 0
[2] Building level 0
[1] Building level 1
[0] Building level 1
Reconstruction on level 1
[2] Building level 1
[3] Building level 1
[1] Building level 2
[2] Building level 2
[1] Building level 3
[1] Building level 4
[2] Building level 3
[1] Building level 5
Creating AMGLevel 
[1] Building level 6
[0] Building level 2
Reconstruction on level 2
[3] Building level 2
[2] Building level 4
[1] Building level 7
[1] Building level 8
[1] Building level 9
[1] Building level 10
[1] Building level 11
[1] Building level 12
[1] Building level 13
[1] Building level 14
[2] Building level 5
Creating AMGLevel 
[0] Building level 3
Reconstruction on level 3
[3] Building level 3
[2] Building level 6
[2] Building level 7
[2] Building level 8
[2] Building level 9
[2] Building level 10
[2] Building level 11
[2] Building level 12
[2] Building level 13
[2] Building level 14
Creating AMGLevel 
[0] Building level 4
Reconstruction on level 4
[3] Building level 4
Creating AMGLevel 
[0] Building level 5
Reconstruction on level 5
[3] Building level 5
Creating AMGLevel 
[0] Building level 6
Reconstruction on level 6
[3] Building level 6
Creating AMGLevel 
[0] Building level 7
Reconstruction on level 7
Creating AMGLevel 
[0] Building level 8
Reconstruction on level 8
[3] Building level 7
Creating AMGLevel 
[0] Building level 9
Reconstruction on level 9
Creating AMGLevel 
[0] Building level 10
Reconstruction on level 10
Creating AMGLevel 
[0] Building level 11
Reconstruction on level 11
Creating AMGLevel 
[0] Building level 12
Reconstruction on level 12
Creating AMGLevel 
[0] Building level 13
Reconstruction on level 13
Creating AMGLevel 
[0] Building level 14
Reconstruction on level 14
Creating AMGLevel 
14 Level construction complete
[3] Building level 8
[3] Building level 9
[3] Building level 10
[3] Building level 11
[3] Building level 12
[3] Building level 13
[3] Building level 14
initial dot_x = 113093
Iter #1 residual = 0.00212822
Iter #2 residual = 0.00119999
Iter #3 residual = 0.000674938
Iter #4 residual = 0.000417823
Iter #5 residual = 0.00024716
GPU: 5 iters: 1.28503 s: 2.54639 GB/s
GPUAMG:  Solving for pd, Initial residual = 0.0042456, Final residual = 0.000160472, No Iterations 5
[1] Building level 0
[0] Building level 0
[3] Building level 0
[2] Building level 0
[0] Building level 1
[1] Building level 1
[2] Building level 1
[3] Building level 1
[0] Building level 2
[1] Building level 2
[2] Building level 2
[3] Building level 2
[0] Building level 3
[1] Building level 3
[2] Building level 3
[3] Building level 3
[1] Building level 4
[0] Building level 4
[2] Building level 4
[3] Building level 4
[1] Building level 5
[0] Building level 5
[2] Building level 5
[1] Building level 6
[0] Building level 6
[3] Building level 5
[1] Building level 7
[1] Building level 8
[1] Building level 9
[0] Building level 7
[1] Building level 10
[2] Building level 6
[1] Building level 11
[1] Building level 12
[1] Building level 13
[1] Building level 14
[0] Building level 8
[0] Building level 9
[0] Building level 10
[0] Building level 11
[3] Building level 6
[0] Building level 12
[0] Building level 13
[0] Building level 14
14 Level construction complete
[2] Building level 7
[2] Building level 8
[2] Building level 9
[3] Building level 7
[2] Building level 10
[2] Building level 11
[2] Building level 12
[2] Building level 13
[2] Building level 14
[3] Building level 8
[3] Building level 9
[3] Building level 10
[3] Building level 11
[3] Building level 12
[3] Building level 13
[3] Building level 14
initial dot_x = 117287
Iter #1 residual = 0.00133763
Iter #2 residual = 0.000671029
Iter #3 residual = 0.000396961
Iter #4 residual = 0.000222034
GPU: 4 iters: 1.08059 s: 2.42253 GB/s
GPUAMG:  Solving for pd, Initial residual = 0.00304751, Final residual = 0.000138211, No Iterations 4
[1] Building level 0
[0] Building level 0
[3] Building level 0
[2] Building level 0
[2] Building level 1
[0] Building level 1
[1] Building level 1
[3] Building level 1
[2] Building level 2
[0] Building level 2
[1] Building level 2
[3] Building level 2
[2] Building level 3
[0] Building level 3
[1] Building level 3
[3] Building level 3
[1] Building level 4
[2] Building level 4
[0] Building level 4
[3] Building level 4
[1] Building level 5
[2] Building level 5
[0] Building level 5
[3] Building level 5
[1] Building level 6
[2] Building level 6
[0] Building level 6
[1] Building level 7
[2] Building level 7
[1] Building level 8
[3] Building level 6
[1] Building level 9
[0] Building level 7
[1] Building level 10
[1] Building level 11
[2] Building level 8
[1] Building level 12
[1] Building level 13
[1] Building level 14
[2] Building level 9
[0] Building level 8
[2] Building level 10
[2] Building level 11
[2] Building level 12
[2] Building level 13
[2] Building level 14
[0] Building level 9
[3] Building level 7
[0] Building level 10
[0] Building level 11
[0] Building level 12
[0] Building level 13
[0] Building level 14
14 Level construction complete
[3] Building level 8
[3] Building level 9
[3] Building level 10
[3] Building level 11
[3] Building level 12
[3] Building level 13
[3] Building level 14
initial dot_x = 112776
Iter #1 residual = 0.000458801
Iter #2 residual = 0.000174346
Iter #3 residual = 8.90464e-05
Iter #4 residual = 5.88615e-05
Iter #5 residual = 4.11114e-05
Iter #6 residual = 2.69586e-05
Iter #7 residual = 1.68786e-05
Iter #8 residual = 1.18721e-05
Iter #9 residual = 7.15503e-06
Iter #10 residual = 5.57155e-06
Iter #11 residual = 4.62082e-06
Iter #12 residual = 2.56748e-06
Iter #13 residual = 1.83968e-06
Iter #14 residual = 1.44184e-06
Iter #15 residual = 9.53988e-07
Iter #16 residual = 9.51449e-07
Iter #17 residual = 5.22445e-07
Iter #18 residual = 4.60808e-07
Iter #19 residual = 3.57762e-07
Iter #20 residual = 3.45227e-07
Iter #21 residual = 2.63729e-07
Iter #22 residual = 2.54217e-07
Iter #23 residual = 2.48335e-07
Iter #24 residual = 2.00055e-07
Iter #25 residual = 2.2171e-07
Iter #26 residual = 1.23466e-07
Iter #27 residual = 1.15584e-07
Iter #28 residual = 1.01226e-07
GPU: 28 iters: 6.23787 s: 2.93758 GB/s
GPUAMG:  Solving for pd, Initial residual = 0.00263656, Final residual = 8.257e-08, No Iterations 28
time step continuity errors : sum local = 4.00712e-12, global = 1.02546e-24, cumulative = 3.9796e-25
ExecutionTime = 194.81 s  ClockTime = 204 s

Courant Number mean: 1.35764e-05 max: 0.00482758 velocity magnitude: 0.0754309
Time = 0.004

MULES: Solving for alpha1
Liquid phase volume fraction = 0.00275421  Min(alpha1) = -1.19733e-33  Max(alpha1) = 1
MULES: Solving for alpha1
Liquid phase volume fraction = 0.00275421  Min(alpha1) = -2.10448e-30  Max(alpha1) = 1
[1] Building level 0
[0] Building level 0
[3] Building level 0
[2] Building level 0
[2] Building level 1
[0] Building level 1
[1] Building level 1
[3] Building level 1
[0] Building level 2
Reconstruction on level 2
[1] Building level 2
Creating AMGLevel 
[1] Building level 3
[0] Building level 3
Reconstruction on level 3
[3] Building level 2
[2] Building level 2
[1] Building level 4
Creating AMGLevel 
[0] Building level 4
Reconstruction on level 4
[1] Building level 5
Creating AMGLevel 
[0] Building level 5
Reconstruction on level 5
[1] Building level 6
[3] Building level 3
[2] Building level 3
Creating AMGLevel 
[0] Building level 6
Reconstruction on level 6
[1] Building level 7
[1] Building level 8
Creating AMGLevel 
[0] Building level 7
Reconstruction on level 7
[1] Building level 9
[1] Building level 10
Creating AMGLevel 
[0] Building level 8
Reconstruction on level 8
[1] Building level 11
[1] Building level 12
[1] Building level 13
[1] Building level 14
Creating AMGLevel 
[0] Building level 9
Reconstruction on level 9
Creating AMGLevel 
[0] Building level 10
Reconstruction on level 10
Creating AMGLevel 
[0] Building level 11
Reconstruction on level 11
Creating AMGLevel 
[0] Building level 12
Reconstruction on level 12
Creating AMGLevel 
[0] Building level 13
Reconstruction on level 13
Creating AMGLevel 
[0] Building level 14
Reconstruction on level 14
Creating AMGLevel 
14 Level construction complete
[3] Building level 4
[2] Building level 4
[3] Building level 5
[2] Building level 5
[3] Building level 6
[2] Building level 6
[3] Building level 7
[3] Building level 8
[2] Building level 7
[3] Building level 9
[3] Building level 10
[3] Building level 11
[3] Building level 12
[3] Building level 13
[2] Building level 8
[3] Building level 14
[2] Building level 9
[2] Building level 10
[2] Building level 11
[2] Building level 12
[2] Building level 13
[2] Building level 14
initial dot_x = 114170
Iter #1 residual = 0.00136608
Iter #2 residual = 0.000758225
Iter #3 residual = 0.000414965
Iter #4 residual = 0.000247513
GPU: 4 iters: 1.02136 s: 2.563 GB/s
GPUAMG:  Solving for pd, Initial residual = 0.00342682, Final residual = 0.000149239, No Iterations 4
[1] Building level 0
[0] Building level 0
[2] Building level 0
[3] Building level 0
[2] Building level 1
[1] Building level 1
[3] Building level 1
[0] Building level 1
[1] Building level 2
[0] Building level 2
[2] Building level 2
[3] Building level 2
[1] Building level 3
[0] Building level 3
[2] Building level 3
[3] Building level 3
[1] Building level 4
[2] Building level 4
[0] Building level 4
[3] Building level 4
[1] Building level 5
[2] Building level 5
[0] Building level 5
[3] Building level 5
[1] Building level 6
[2] Building level 6
[0] Building level 6
[1] Building level 7
[3] Building level 6
[2] Building level 7
[1] Building level 8
[0] Building level 7
[1] Building level 9
[2] Building level 8
[1] Building level 10
[1] Building level 11
[1] Building level 12
[1] Building level 13
[1] Building level 14
[2] Building level 9
[3] Building level 7
[0] Building level 8
[2] Building level 10
[2] Building level 11
[2] Building level 12
[2] Building level 13
[2] Building level 14
[0] Building level 9
[0] Building level 10
[0] Building level 11
[0] Building level 12
[0] Building level 13
[3] Building level 8
[0] Building level 14
14 Level construction complete
[3] Building level 9
[3] Building level 10
[3] Building level 11
[3] Building level 12
[3] Building level 13
[3] Building level 14
initial dot_x = 120531
Iter #1 residual = 0.00200009
Iter #2 residual = 0.00113251
Iter #3 residual = 0.000615899
Iter #4 residual = 0.000360588
Iter #5 residual = 0.000215792
GPU: 5 iters: 1.22636 s: 2.66822 GB/s
GPUAMG:  Solving for pd, Initial residual = 0.00323362, Final residual = 0.000131484, No Iterations 5
[1] Building level 0
[0] Building level 0
[2] Building level 0
[3] Building level 0
[2] Building level 1
[3] Building level 1
[1] Building level 1
[0] Building level 1
[1] Building level 2
[0] Building level 2
[2] Building level 2
[3] Building level 2
[1] Building level 3
[0] Building level 3
[2] Building level 3
[3] Building level 3
[1] Building level 4
[2] Building level 4
[0] Building level 4
[3] Building level 4
[1] Building level 5
[2] Building level 5
[0] Building level 5
[3] Building level 5
[1] Building level 6
[2] Building level 6
[0] Building level 6
[1] Building level 7
[3] Building level 6
[1] Building level 8
[2] Building level 7
[0] Building level 7
[1] Building level 9
[1] Building level 10
[1] Building level 11
[2] Building level 8
[1] Building level 12
[1] Building level 13
[1] Building level 14
[3] Building level 7
[0] Building level 8
[2] Building level 9
[2] Building level 10
[2] Building level 11
[0] Building level 9
[2] Building level 12
[2] Building level 13
[2] Building level 14
[0] Building level 10
[3] Building level 8
[0] Building level 11
[0] Building level 12
[0] Building level 13
[0] Building level 14
14 Level construction complete
[3] Building level 9
[3] Building level 10
[3] Building level 11
[3] Building level 12
[3] Building level 13
[3] Building level 14
initial dot_x = 114149
Iter #1 residual = 0.000829424
Iter #2 residual = 0.000454325
Iter #3 residual = 0.000226515
Iter #4 residual = 0.000127827
Iter #5 residual = 7.28415e-05
Iter #6 residual = 4.41361e-05
Iter #7 residual = 2.65128e-05
Iter #8 residual = 1.63454e-05
Iter #9 residual = 1.00847e-05
Iter #10 residual = 6.27391e-06
Iter #11 residual = 3.87983e-06
Iter #12 residual = 2.38605e-06
Iter #13 residual = 1.46352e-06
Iter #14 residual = 8.93173e-07
Iter #15 residual = 5.58968e-07
Iter #16 residual = 3.66534e-07
Iter #17 residual = 2.49941e-07
Iter #18 residual = 1.78823e-07
Iter #19 residual = 1.21739e-07
Iter #20 residual = 1.2804e-07
GPU: 20 iters: 4.27367 s: 3.06265 GB/s
GPUAMG:  Solving for pd, Initial residual = 0.00242523, Final residual = 5.68619e-08, No Iterations 20
time step continuity errors : sum local = 2.65904e-12, global = 7.22749e-25, cumulative = 1.12071e-24
ExecutionTime = 246.07 s  ClockTime = 256 s

Courant Number mean: 1.92535e-05 max: 0.00598208 velocity magnitude: 0.0934699
Time = 0.005

MULES: Solving for alpha1
Liquid phase volume fraction = 0.00275421  Min(alpha1) = -1.87414e-30  Max(alpha1) = 1
MULES: Solving for alpha1
Liquid phase volume fraction = 0.00275421  Min(alpha1) = -5.00159e-30  Max(alpha1) = 1
[0] Building level 0
[1] Building level 0
[2] Building level 0
[3] Building level 0
[0] Building level 1
[1] Building level 1
[2] Building level 1
[3] Building level 1
[1] Building level 2
[0] Building level 2
Reconstruction on level 2
[2] Building level 2
[2] Building level 3
Creating AMGLevel 
[0] Building level 3
Reconstruction on level 3
[1] Building level 3
[3] Building level 2
[1] Building level 4
Creating AMGLevel 
[0] Building level 4
Reconstruction on level 4
[2] Building level 4
[1] Building level 5
Creating AMGLevel 
[0] Building level 5
Reconstruction on level 5
[2] Building level 5
[3] Building level 3
[1] Building level 6
Creating AMGLevel 
[0] Building level 6
Reconstruction on level 6
[2] Building level 6
[1] Building level 7
Creating AMGLevel 
[0] Building level 7
Reconstruction on level 7
[2] Building level 7
[1] Building level 8
Creating AMGLevel 
[1] Building level 9
[0] Building level 8
Reconstruction on level 8
[2] Building level 8
[1] Building level 10
[1] Building level 11
Creating AMGLevel 
[0] Building level 9
Reconstruction on level 9
[1] Building level 12
[2] Building level 9
[1] Building level 13
[1] Building level 14
Creating AMGLevel 
[0] Building level 10
Reconstruction on level 10
[2] Building level 10
Creating AMGLevel 
[0] Building level 11
Reconstruction on level 11
[2] Building level 11
Creating AMGLevel 
[0] Building level 12
Reconstruction on level 12
[2] Building level 12
Creating AMGLevel 
[0] Building level 13
Reconstruction on level 13
[2] Building level 13
Creating AMGLevel 
[0] Building level 14
Reconstruction on level 14
[2] Building level 14
Creating AMGLevel 
14 Level construction complete
[3] Building level 4
[3] Building level 5
[3] Building level 6
[3] Building level 7
[3] Building level 8
[3] Building level 9
[3] Building level 10
[3] Building level 11
[3] Building level 12
[3] Building level 13
[3] Building level 14
initial dot_x = 114496
Iter #1 residual = 0.0012342
Iter #2 residual = 0.000664333
Iter #3 residual = 0.00037936
Iter #4 residual = 0.00021963
Iter #5 residual = 0.000157371
GPU: 5 iters: 1.31272 s: 2.49268 GB/s
GPUAMG:  Solving for pd, Initial residual = 0.00216362, Final residual = 0.000106123, No Iterations 5
[1] Building level 0
[0] Building level 0
[3] Building level 0
[2] Building level 0
[2] Building level 1
[1] Building level 1
[0] Building level 1
[3] Building level 1
[1] Building level 2
[0] Building level 2
[2] Building level 2
[3] Building level 2
[1] Building level 3
[0] Building level 3
[2] Building level 3
[3] Building level 3
[1] Building level 4
[0] Building level 4
[3] Building level 4
[2] Building level 4
[1] Building level 5
[0] Building level 5
[3] Building level 5
[2] Building level 5
[1] Building level 6
[0] Building level 6
[3] Building level 6
[1] Building level 7
[0] Building level 7
[1] Building level 8
[2] Building level 6
[1] Building level 9
[1] Building level 10
[0] Building level 8
[1] Building level 11
[3] Building level 7
[1] Building level 12
[1] Building level 13
[1] Building level 14
[0] Building level 9
[0] Building level 10
[0] Building level 11
[0] Building level 12
[0] Building level 13
[0] Building level 14
14 Level construction complete
[3] Building level 8
[2] Building level 7
[3] Building level 9
[3] Building level 10
[3] Building level 11
[3] Building level 12
[3] Building level 13
[3] Building level 14
[2] Building level 8
[2] Building level 9
[2] Building level 10
[2] Building level 11
[2] Building level 12
[2] Building level 13
[2] Building level 14
initial dot_x = 119010
Iter #1 residual = 0.00100762
Iter #2 residual = 0.000541834
Iter #3 residual = 0.000327921
Iter #4 residual = 0.000245185
Iter #5 residual = 0.000198834
Iter #6 residual = 0.000161989
Iter #7 residual = 0.000121901
GPU: 7 iters: 1.72254 s: 2.65949 GB/s
GPUAMG:  Solving for pd, Initial residual = 0.00181159, Final residual = 7.22743e-05, No Iterations 7
[1] Building level 0
[0] Building level 0
[2] Building level 0
[3] Building level 0
[2] Building level 1
[0] Building level 1
[3] Building level 1
[1] Building level 1
[2] Building level 2
[0] Building level 2
[1] Building level 2
[3] Building level 2
[2] Building level 3
[0] Building level 3
[1] Building level 3
[3] Building level 3
[1] Building level 4
[0] Building level 4
[3] Building level 4
[2] Building level 4
[1] Building level 5
[0] Building level 5
[3] Building level 5
[2] Building level 5
[1] Building level 6
[0] Building level 6
[3] Building level 6
[2] Building level 6
[1] Building level 7
[0] Building level 7
[3] Building level 7
[1] Building level 8
[1] Building level 9
[0] Building level 8
[3] Building level 8
[1] Building level 10
[2] Building level 7
[1] Building level 11
[1] Building level 12
[1] Building level 13
[1] Building level 14
[0] Building level 9
[3] Building level 9
[0] Building level 10
[3] Building level 10
[0] Building level 11
[3] Building level 11
[0] Building level 12
[3] Building level 12
[0] Building level 13
[3] Building level 13
[0] Building level 14
14 Level construction complete
[3] Building level 14
[2] Building level 8
[2] Building level 9
[2] Building level 10
[2] Building level 11
[2] Building level 12
[2] Building level 13
[2] Building level 14
initial dot_x = 117764
Iter #1 residual = 0.000546023
Iter #2 residual = 0.000319432
Iter #3 residual = 0.000179483
Iter #4 residual = 0.000124198
Iter #5 residual = 0.000102446
Iter #6 residual = 8.56719e-05
Iter #7 residual = 7.30078e-05
Iter #8 residual = 6.45082e-05
Iter #9 residual = 5.04618e-05
Iter #10 residual = 4.17253e-05
Iter #11 residual = 3.6168e-05
Iter #12 residual = 3.09228e-05
Iter #13 residual = 2.55824e-05
Iter #14 residual = 1.79796e-05
Iter #15 residual = 1.4593e-05
Iter #16 residual = 1.22741e-05
Iter #17 residual = 1.08439e-05
Iter #18 residual = 9.3681e-06
Iter #19 residual = 7.36933e-06
Iter #20 residual = 5.62738e-06
Iter #21 residual = 4.10304e-06
Iter #22 residual = 3.51979e-06
Iter #23 residual = 2.99805e-06
Iter #24 residual = 2.35219e-06
Iter #25 residual = 1.97702e-06
Iter #26 residual = 1.38848e-06
Iter #27 residual = 1.04457e-06
Iter #28 residual = 8.41108e-07
Iter #29 residual = 6.864e-07
Iter #30 residual = 5.38414e-07
Iter #31 residual = 3.75945e-07
Iter #32 residual = 2.92933e-07
Iter #33 residual = 2.22274e-07
Iter #34 residual = 1.67871e-07
Iter #35 residual = 1.10961e-07
GPU: 35 iters: 7.85611 s: 2.9156 GB/s
GPUAMG:  Solving for pd, Initial residual = 0.0014587, Final residual = 8.43965e-08, No Iterations 35
time step continuity errors : sum local = 4.06729e-12, global = -4.40991e-24, cumulative = -3.2892e-24
ExecutionTime = 301.71 s  ClockTime = 313 s

Courant Number mean: 2.43938e-05 max: 0.00684032 velocity magnitude: 0.10688
Time = 0.006

MULES: Solving for alpha1
Liquid phase volume fraction = 0.00275421  Min(alpha1) = -2.56655e-29  Max(alpha1) = 1
MULES: Solving for alpha1
Liquid phase volume fraction = 0.00275421  Min(alpha1) = -1.95396e-29  Max(alpha1) = 1
[1] Building level 0
[0] Building level 0
[3] Building level 0
[2] Building level 0
[1] Building level 1
[0] Building level 1
Reconstruction on level 1
[2] Building level 1
[3] Building level 1
[1] Building level 2
[2] Building level 2
[1] Building level 3
[2] Building level 3
Creating AMGLevel 
[0] Building level 2
Reconstruction on level 2
[3] Building level 2
[1] Building level 4
[2] Building level 4
[1] Building level 5
[2] Building level 5
Creating AMGLevel 
[0] Building level 3
Reconstruction on level 3
[1] Building level 6
[3] Building level 3
[2] Building level 6
[1] Building level 7
[1] Building level 8
[2] Building level 7
[1] Building level 9
[1] Building level 10
[2] Building level 8
[1] Building level 11
[1] Building level 12
[1] Building level 13
[1] Building level 14
[2] Building level 9
[2] Building level 10
[2] Building level 11
[2] Building level 12
[2] Building level 13
[2] Building level 14
Creating AMGLevel 
[0] Building level 4
Reconstruction on level 4
[3] Building level 4
Creating AMGLevel 
[0] Building level 5
Reconstruction on level 5
[3] Building level 5
Creating AMGLevel 
[0] Building level 6
Reconstruction on level 6
[3] Building level 6
Creating AMGLevel 
[0] Building level 7
Reconstruction on level 7
Creating AMGLevel 
[0] Building level 8
Reconstruction on level 8
[3] Building level 7
Creating AMGLevel 
[0] Building level 9
Reconstruction on level 9
Creating AMGLevel 
[0] Building level 10
Reconstruction on level 10
Creating AMGLevel 
[0] Building level 11
Reconstruction on level 11
[3] Building level 8
Creating AMGLevel 
[0] Building level 12
Reconstruction on level 12
Creating AMGLevel 
[0] Building level 13
Reconstruction on level 13
Creating AMGLevel 
[0] Building level 14
Reconstruction on level 14
Creating AMGLevel 
14 Level construction complete
[3] Building level 9
[3] Building level 10
[3] Building level 11
[3] Building level 12
[3] Building level 13
[3] Building level 14
initial dot_x = 113525
Iter #1 residual = 0.00154532
Iter #2 residual = 0.000820239
Iter #3 residual = 0.000472524
Iter #4 residual = 0.000286831
Iter #5 residual = 0.000173561
GPU: 5 iters: 1.22935 s: 2.66172 GB/s
GPUAMG:  Solving for pd, Initial residual = 0.00228137, Final residual = 0.000109244, No Iterations 5
[0] Building level 0
[1] Building level 0
[3] Building level 0
[2] Building level 0
[0] Building level 1
[1] Building level 1
[2] Building level 1
[3] Building level 1
[1] Building level 2
[0] Building level 2
[2] Building level 2
[3] Building level 2
[1] Building level 3
[0] Building level 3
[2] Building level 3
[3] Building level 3
[1] Building level 4
[0] Building level 4
[2] Building level 4
[3] Building level 4
[1] Building level 5
[0] Building level 5
[2] Building level 5
[1] Building level 6
[3] Building level 5
[1] Building level 7
[0] Building level 6
[1] Building level 8
[2] Building level 6
[1] Building level 9
[1] Building level 10
[1] Building level 11
[1] Building level 12
[1] Building level 13
[1] Building level 14
[3] Building level 6
[0] Building level 7
[2] Building level 7
[0] Building level 8
[2] Building level 8
[0] Building level 9
[3] Building level 7
[0] Building level 10
[0] Building level 11
[0] Building level 12
[2] Building level 9
[0] Building level 13
[0] Building level 14
14 Level construction complete
[2] Building level 10
[2] Building level 11
[3] Building level 8
[2] Building level 12
[2] Building level 13
[2] Building level 14
[3] Building level 9
[3] Building level 10
[3] Building level 11
[3] Building level 12
[3] Building level 13
[3] Building level 14
initial dot_x = 119547
Iter #1 residual = 0.00119694
Iter #2 residual = 0.000616939
Iter #3 residual = 0.000352394
Iter #4 residual = 0.000207081
Iter #5 residual = 0.000123811
Iter #6 residual = 7.33306e-05
GPU: 6 iters: 1.42423 s: 2.75702 GB/s
GPUAMG:  Solving for pd, Initial residual = 0.00119375, Final residual = 5.47177e-05, No Iterations 6
[0] Building level 0
[1] Building level 0
[2] Building level 0
[3] Building level 0
[1] Building level 1
[2] Building level 1
[0] Building level 1
[3] Building level 1
[1] Building level 2
[2] Building level 2
[0] Building level 2
[3] Building level 2
[1] Building level 3
[2] Building level 3
[0] Building level 3
[3] Building level 3
[1] Building level 4
[2] Building level 4
[0] Building level 4
[3] Building level 4
[1] Building level 5
[2] Building level 5
[0] Building level 5
[1] Building level 6
[3] Building level 5
[1] Building level 7
[1] Building level 8
[2] Building level 6
[0] Building level 6
[1] Building level 9
[1] Building level 10
[1] Building level 11
[1] Building level 12
[1] Building level 13
[1] Building level 14
[3] Building level 6
[2] Building level 7
[0] Building level 7
[2] Building level 8
[0] Building level 8
[3] Building level 7
[2] Building level 9
[0] Building level 9
[2] Building level 10
[0] Building level 10
[2] Building level 11
[0] Building level 11
[2] Building level 12
[2] Building level 13
[0] Building level 12
[2] Building level 14
[0] Building level 13
[0] Building level 14
14 Level construction complete
[3] Building level 8
[3] Building level 9
[3] Building level 10
[3] Building level 11
[3] Building level 12
[3] Building level 13
[3] Building level 14
initial dot_x = 114505
Iter #1 residual = 0.000273006
Iter #2 residual = 0.000161868
Iter #3 residual = 9.41501e-05
Iter #4 residual = 6.06187e-05
Iter #5 residual = 3.96294e-05
Iter #6 residual = 2.64052e-05
Iter #7 residual = 1.55553e-05
Iter #8 residual = 1.15136e-05
Iter #9 residual = 6.67116e-06
Iter #10 residual = 4.71203e-06
Iter #11 residual = 3.02215e-06
Iter #12 residual = 1.72622e-06
Iter #13 residual = 1.25654e-06
Iter #14 residual = 8.34778e-07
Iter #15 residual = 6.04166e-07
Iter #16 residual = 5.05506e-07
Iter #17 residual = 3.73512e-07
Iter #18 residual = 3.29297e-07
Iter #19 residual = 2.0038e-07
Iter #20 residual = 1.67966e-07
Iter #21 residual = 1.30702e-07
GPU: 21 iters: 4.49823 s: 3.05524 GB/s
GPUAMG:  Solving for pd, Initial residual = 0.000730626, Final residual = 8.5026e-08, No Iterations 21
time step continuity errors : sum local = 3.99393e-12, global = -2.08635e-24, cumulative = -5.37555e-24
ExecutionTime = 354.34 s  ClockTime = 366 s

Courant Number mean: 2.95099e-05 max: 0.00764226 velocity magnitude: 0.11941
Time = 0.007

MULES: Solving for alpha1
Liquid phase volume fraction = 0.00275421  Min(alpha1) = -4.85532e-31  Max(alpha1) = 1
MULES: Solving for alpha1
Liquid phase volume fraction = 0.00275421  Min(alpha1) = -9.32537e-31  Max(alpha1) = 1
[1] Building level 0
[0] Building level 0
[3] Building level 0
[2] Building level 0
[1] Building level 1
[0] Building level 1
Reconstruction on level 1
[2] Building level 1
[3] Building level 1
[1] Building level 2
[1] Building level 3
[2] Building level 2
[3] Building level 2
Creating AMGLevel 
[0] Building level 2
Reconstruction on level 2
[1] Building level 4
[1] Building level 5
Creating AMGLevel 
[0] Building level 3
Reconstruction on level 3
[3] Building level 3
[2] Building level 3
[1] Building level 6
[1] Building level 7
[1] Building level 8
[1] Building level 9
[1] Building level 10
[1] Building level 11
[1] Building level 12
[1] Building level 13
[1] Building level 14
Creating AMGLevel 
[0] Building level 4
Reconstruction on level 4
[3] Building level 4
[2] Building level 4
Creating AMGLevel 
[0] Building level 5
Reconstruction on level 5
[3] Building level 5
[2] Building level 5
Creating AMGLevel 
[0] Building level 6
Reconstruction on level 6
[3] Building level 6
[2] Building level 6
Creating AMGLevel 
[0] Building level 7
Reconstruction on level 7
[3] Building level 7
[2] Building level 7
Creating AMGLevel 
[0] Building level 8
Reconstruction on level 8
[3] Building level 8
[2] Building level 8
Creating AMGLevel 
[0] Building level 9
Reconstruction on level 9
Creating AMGLevel 
[0] Building level 10
Reconstruction on level 10
[3] Building level 9
Creating AMGLevel 
[0] Building level 11
Reconstruction on level 11
[2] Building level 9
Creating AMGLevel 
[0] Building level 12
Reconstruction on level 12
Creating AMGLevel 
[0] Building level 13
Reconstruction on level 13
[3] Building level 10
Creating AMGLevel 
[0] Building level 14
Reconstruction on level 14
Creating AMGLevel 
14 Level construction complete
[2] Building level 10
[3] Building level 11
[2] Building level 11
[3] Building level 12
[3] Building level 13
[2] Building level 12
[3] Building level 14
[2] Building level 13
[2] Building level 14
initial dot_x = 113832
Iter #1 residual = 0.00145867
Iter #2 residual = 0.000796819
Iter #3 residual = 0.000449126
Iter #4 residual = 0.000278955
Iter #5 residual = 0.000157162
Iter #6 residual = 0.000118159
GPU: 6 iters: 1.41572 s: 2.77359 GB/s
GPUAMG:  Solving for pd, Initial residual = 0.00232642, Final residual = 9.31844e-05, No Iterations 6
[1] Building level 0
[0] Building level 0
[2] Building level 0
[3] Building level 0
[0] Building level 1
[1] Building level 1
[2] Building level 1
[3] Building level 1
[1] Building level 2
[0] Building level 2
[2] Building level 2
[3] Building level 2
[1] Building level 3
[0] Building level 3
[2] Building level 3
[3] Building level 3
[1] Building level 4
[0] Building level 4
[2] Building level 4
[3] Building level 4
[1] Building level 5
[0] Building level 5
[2] Building level 5
[1] Building level 6
[3] Building level 5
[1] Building level 7
[0] Building level 6
[1] Building level 8
[2] Building level 6
[1] Building level 9
[1] Building level 10
[1] Building level 11
[0] Building level 7
[1] Building level 12
[1] Building level 13
[1] Building level 14
[0] Building level 8
[3] Building level 6
[2] Building level 7
[0] Building level 9
[0] Building level 10
[0] Building level 11
[0] Building level 12
[0] Building level 13
[0] Building level 14
14 Level construction complete
[2] Building level 8
[2] Building level 9
[2] Building level 10
[3] Building level 7
[2] Building level 11
[2] Building level 12
[2] Building level 13
[2] Building level 14
[3] Building level 8
[3] Building level 9
[3] Building level 10
[3] Building level 11
[3] Building level 12
[3] Building level 13
[3] Building level 14
initial dot_x = 118877
Iter #1 residual = 0.00124585
Iter #2 residual = 0.000696117
Iter #3 residual = 0.000510989
Iter #4 residual = 0.000409497
Iter #5 residual = 0.000350341
Iter #6 residual = 0.000268079
Iter #7 residual = 0.000180477
Iter #8 residual = 0.000146262
Iter #9 residual = 0.00011597
Iter #10 residual = 0.000103367
Iter #11 residual = 8.74142e-05
Iter #12 residual = 6.85792e-05
GPU: 12 iters: 2.61765 s: 3.00012 GB/s
GPUAMG:  Solving for pd, Initial residual = 0.00109692, Final residual = 5.11678e-05, No Iterations 12
[0] Building level 0
[1] Building level 0
[3] Building level 0
[2] Building level 0
[2] Building level 1
[0] Building level 1
[1] Building level 1
[3] Building level 1
[1] Building level 2
[2] Building level 2
[3] Building level 2
[0] Building level 2
[1] Building level 3
[2] Building level 3
[3] Building level 3
[0] Building level 3
[1] Building level 4
[2] Building level 4
[3] Building level 4
[0] Building level 4
[1] Building level 5
[2] Building level 5
[0] Building level 5
[3] Building level 5
[1] Building level 6
[2] Building level 6
[0] Building level 6
[3] Building level 6
[1] Building level 7
[2] Building level 7
[1] Building level 8
[0] Building level 7
[1] Building level 9
[3] Building level 7
[1] Building level 10
[1] Building level 11
[1] Building level 12
[2] Building level 8
[1] Building level 13
[1] Building level 14
[0] Building level 8
[2] Building level 9
[3] Building level 8
[2] Building level 10
[2] Building level 11
[0] Building level 9
[2] Building level 12
[3] Building level 9
[2] Building level 13
[2] Building level 14
[0] Building level 10
[3] Building level 10
[0] Building level 11
[0] Building level 12
[0] Building level 13
[3] Building level 11
[0] Building level 14
14 Level construction complete
[3] Building level 12
[3] Building level 13
[3] Building level 14
initial dot_x = 119065
Iter #1 residual = 0.000191734
Iter #2 residual = 0.000119467
Iter #3 residual = 8.91171e-05
Iter #4 residual = 7.7346e-05
Iter #5 residual = 5.56997e-05
Iter #6 residual = 4.3803e-05
Iter #7 residual = 3.01076e-05
Iter #8 residual = 2.34434e-05
Iter #9 residual = 1.78587e-05
Iter #10 residual = 1.37923e-05
Iter #11 residual = 1.07328e-05
Iter #12 residual = 8.01448e-06
Iter #13 residual = 5.66171e-06
Iter #14 residual = 3.99755e-06
Iter #15 residual = 3.42025e-06
Iter #16 residual = 2.63e-06
Iter #17 residual = 2.34706e-06
Iter #18 residual = 1.94846e-06
Iter #19 residual = 1.55808e-06
Iter #20 residual = 1.34195e-06
Iter #21 residual = 1.04755e-06
Iter #22 residual = 9.59857e-07
Iter #23 residual = 7.97877e-07
Iter #24 residual = 7.66217e-07
Iter #25 residual = 6.96481e-07
Iter #26 residual = 6.21695e-07
Iter #27 residual = 4.89063e-07
Iter #28 residual = 5.9066e-07
Iter #29 residual = 3.28727e-07
Iter #30 residual = 2.9305e-07
Iter #31 residual = 2.39047e-07
Iter #32 residual = 2.1737e-07
Iter #33 residual = 1.87967e-07
Iter #34 residual = 1.93803e-07
Iter #35 residual = 2.4487e-07
Iter #36 residual = 1.62667e-07
Iter #37 residual = 1.1096e-07
Iter #38 residual = 1.0823e-07
Iter #39 residual = 1.3585e-07
GPU: 39 iters: 8.07062 s: 3.16247 GB/s
GPUAMG:  Solving for pd, Initial residual = 0.000561425, Final residual = 7.98905e-08, No Iterations 39
time step continuity errors : sum local = 3.74946e-12, global = -1.53366e-24, cumulative = -6.90921e-24
ExecutionTime = 411.84 s  ClockTime = 425 s

Courant Number mean: 3.46309e-05 max: 0.00834949 velocity magnitude: 0.130461
Time = 0.008

MULES: Solving for alpha1
Liquid phase volume fraction = 0.00275421  Min(alpha1) = -1.72761e-30  Max(alpha1) = 1
MULES: Solving for alpha1
Liquid phase volume fraction = 0.00275421  Min(alpha1) = -3.82558e-30  Max(alpha1) = 1
[1] Building level 0
[0] Building level 0
[3] Building level 0
[2] Building level 0
[1] Building level 1
[0] Building level 1
Reconstruction on level 1
[2] Building level 1
[3] Building level 1
[1] Building level 2
[1] Building level 3
Creating AMGLevel 
[0] Building level 2
Reconstruction on level 2
[2] Building level 2
[3] Building level 2
[1] Building level 4
[1] Building level 5
Creating AMGLevel 
[2] Building level 3
[0] Building level 3
Reconstruction on level 3
[3] Building level 3
[1] Building level 6
[1] Building level 7
[1] Building level 8
[1] Building level 9
[1] Building level 10
[1] Building level 11
[1] Building level 12
[1] Building level 13
[1] Building level 14
Creating AMGLevel 
[0] Building level 4
Reconstruction on level 4
[3] Building level 4
[2] Building level 4
Creating AMGLevel 
[0] Building level 5
Reconstruction on level 5
[3] Building level 5
[2] Building level 5
Creating AMGLevel 
[0] Building level 6
Reconstruction on level 6
[3] Building level 6
[2] Building level 6
Creating AMGLevel 
[0] Building level 7
Reconstruction on level 7
Creating AMGLevel 
[0] Building level 8
Reconstruction on level 8
[3] Building level 7
[2] Building level 7
Creating AMGLevel 
[0] Building level 9
Reconstruction on level 9
Creating AMGLevel 
[0] Building level 10
Reconstruction on level 10
Creating AMGLevel 
[0] Building level 11
Reconstruction on level 11
Creating AMGLevel 
[0] Building level 12
Reconstruction on level 12
Creating AMGLevel 
[3] Building level 8
[0] Building level 13
Reconstruction on level 13
Creating AMGLevel 
[0] Building level 14
Reconstruction on level 14
[2] Building level 8
Creating AMGLevel 
14 Level construction complete
[3] Building level 9
[2] Building level 9
[3] Building level 10
[2] Building level 10
[3] Building level 11
[2] Building level 11
[3] Building level 12
[3] Building level 13
[2] Building level 12
[3] Building level 14
[2] Building level 13
[2] Building level 14
initial dot_x = 113567
Iter #1 residual = 0.00149889
Iter #2 residual = 0.000784996
Iter #3 residual = 0.000447931
Iter #4 residual = 0.000287925
Iter #5 residual = 0.000227279
Iter #6 residual = 0.000189162
Iter #7 residual = 0.000161986
Iter #8 residual = 0.000135755
GPU: 8 iters: 1.97648 s: 2.6489 GB/s
GPUAMG:  Solving for pd, Initial residual = 0.00236455, Final residual = 0.000117972, No Iterations 8
[0] Building level 0
[1] Building level 0
[3] Building level 0
[2] Building level 0
[1] Building level 1
[0] Building level 1
[2] Building level 1
[3] Building level 1
[1] Building level 2
[0] Building level 2
[2] Building level 2
[3] Building level 2
[1] Building level 3
[0] Building level 3
[2] Building level 3
[3] Building level 3
[1] Building level 4
[0] Building level 4
[2] Building level 4
[3] Building level 4
[1] Building level 5
[0] Building level 5
[2] Building level 5
[1] Building level 6
[3] Building level 5
[1] Building level 7
[0] Building level 6
[1] Building level 8
[2] Building level 6
[1] Building level 9
[1] Building level 10
[1] Building level 11
[1] Building level 12
[1] Building level 13
[1] Building level 14
[0] Building level 7
[3] Building level 6
[0] Building level 8
[2] Building level 7
[0] Building level 9
[0] Building level 10
[0] Building level 11
[0] Building level 12
[0] Building level 13
[0] Building level 14
14 Level construction complete
[2] Building level 8
[3] Building level 7
[2] Building level 9
[2] Building level 10
[2] Building level 11
[2] Building level 12
[2] Building level 13
[2] Building level 14
[3] Building level 8
[3] Building level 9
[3] Building level 10
[3] Building level 11
[3] Building level 12
[3] Building level 13
[3] Building level 14
initial dot_x = 117896
Iter #1 residual = 0.00131108
Iter #2 residual = 0.000701323
Iter #3 residual = 0.000523262
Iter #4 residual = 0.000418222
Iter #5 residual = 0.000298762
Iter #6 residual = 0.000242184
Iter #7 residual = 0.000204714
Iter #8 residual = 0.000168409
Iter #9 residual = 0.000124726
Iter #10 residual = 8.36073e-05
Iter #11 residual = 6.45854e-05
GPU: 11 iters: 2.60079 s: 2.76793 GB/s
GPUAMG:  Solving for pd, Initial residual = 0.0010985, Final residual = 4.30019e-05, No Iterations 11
[1] Building level 0
[0] Building level 0
[3] Building level 0
[2] Building level 0
[0] Building level 1
[1] Building level 1
[2] Building level 1
[3] Building level 1
[1] Building level 2
[0] Building level 2
[2] Building level 2
[3] Building level 2
[1] Building level 3
[0] Building level 3
[2] Building level 3
[3] Building level 3
[1] Building level 4
[0] Building level 4
[2] Building level 4
[3] Building level 4
[1] Building level 5
[0] Building level 5
[1] Building level 6
[2] Building level 5
[3] Building level 5
[0] Building level 6
[1] Building level 7
[1] Building level 8
[0] Building level 7
[1] Building level 9
[1] Building level 10
[2] Building level 6
[1] Building level 11
[3] Building level 6
[1] Building level 12
[1] Building level 13
[1] Building level 14
[0] Building level 8
[0] Building level 9
[0] Building level 10
[0] Building level 11
[0] Building level 12
[0] Building level 13
[0] Building level 14
14 Level construction complete
[2] Building level 7
[3] Building level 7
[2] Building level 8
[3] Building level 8
[3] Building level 9
[2] Building level 9
[3] Building level 10
[2] Building level 10
[3] Building level 11
[2] Building level 11
[3] Building level 12
[2] Building level 12
[3] Building level 13
[2] Building level 13
[3] Building level 14
[2] Building level 14
initial dot_x = 113678
Iter #1 residual = 0.00018286
Iter #2 residual = 0.000108225
Iter #3 residual = 6.98683e-05
Iter #4 residual = 5.58503e-05
Iter #5 residual = 4.53715e-05
Iter #6 residual = 3.82765e-05
Iter #7 residual = 3.27504e-05
Iter #8 residual = 2.76622e-05
Iter #9 residual = 2.37519e-05
Iter #10 residual = 2.05324e-05
Iter #11 residual = 1.58624e-05
Iter #12 residual = 1.01937e-05
Iter #13 residual = 6.86229e-06
Iter #14 residual = 4.61407e-06
Iter #15 residual = 3.05961e-06
Iter #16 residual = 2.24147e-06
Iter #17 residual = 1.84827e-06
Iter #18 residual = 1.52178e-06
Iter #19 residual = 1.19289e-06
Iter #20 residual = 9.30828e-07
Iter #21 residual = 6.93141e-07
Iter #22 residual = 6.35387e-07
Iter #23 residual = 3.92371e-07
Iter #24 residual = 2.68683e-07
Iter #25 residual = 2.34465e-07
Iter #26 residual = 1.63636e-07
Iter #27 residual = 1.20251e-07
GPU: 27 iters: 6.07061 s: 2.91072 GB/s
GPUAMG:  Solving for pd, Initial residual = 0.000475487, Final residual = 7.57863e-08, No Iterations 27
time step continuity errors : sum local = 3.55153e-12, global = 5.19973e-24, cumulative = -1.70949e-24
ExecutionTime = 468.28 s  ClockTime = 482 s

Courant Number mean: 3.97659e-05 max: 0.00903211 velocity magnitude: 0.140375
Time = 0.009

MULES: Solving for alpha1
Liquid phase volume fraction = 0.00275421  Min(alpha1) = -4.99804e-30  Max(alpha1) = 1
MULES: Solving for alpha1
Liquid phase volume fraction = 0.00275421  Min(alpha1) = -1.00686e-29  Max(alpha1) = 1
[1] Building level 0
[0] Building level 0
[3] Building level 0
[2] Building level 0
[1] Building level 1
[0] Building level 1
[2] Building level 1
[3] Building level 1
[0] Building level 2
Reconstruction on level 2
[2] Building level 2
Creating AMGLevel 
[0] Building level 3
Reconstruction on level 3
[2] Building level 3
[1] Building level 2
[3] Building level 2
Creating AMGLevel 
[2] Building level 4
[0] Building level 4
Reconstruction on level 4
Creating AMGLevel 
[0] Building level 5
Reconstruction on level 5
[2] Building level 5
[1] Building level 3
[3] Building level 3
Creating AMGLevel 
[0] Building level 6
Reconstruction on level 6
[2] Building level 6
Creating AMGLevel 
[0] Building level 7
Reconstruction on level 7
[2] Building level 7
Creating AMGLevel 
[0] Building level 8
Reconstruction on level 8
[2] Building level 8
Creating AMGLevel 
[0] Building level 9
Reconstruction on level 9
[2] Building level 9
Creating AMGLevel 
[0] Building level 10
Reconstruction on level 10
[2] Building level 10
Creating AMGLevel 
[0] Building level 11
Reconstruction on level 11
[2] Building level 11
Creating AMGLevel 
[0] Building level 12
Reconstruction on level 12
[2] Building level 12
Creating AMGLevel 
[0] Building level 13
Reconstruction on level 13
[2] Building level 13
Creating AMGLevel 
[0] Building level 14
Reconstruction on level 14
Creating AMGLevel 
14 Level construction complete
[2] Building level 14
[1] Building level 4
[3] Building level 4
[1] Building level 5
[3] Building level 5
[1] Building level 6
[3] Building level 6
[1] Building level 7
[1] Building level 8
[3] Building level 7
[1] Building level 9
[1] Building level 10
[1] Building level 11
[3] Building level 8
[1] Building level 12
[1] Building level 13
[1] Building level 14
[3] Building level 9
[3] Building level 10
[3] Building level 11
[3] Building level 12
[3] Building level 13
[3] Building level 14
initial dot_x = 113958
Iter #1 residual = 0.00138309
Iter #2 residual = 0.000764784
Iter #3 residual = 0.000439711
Iter #4 residual = 0.000269738
Iter #5 residual = 0.00016547
GPU: 5 iters: 1.29214 s: 2.53239 GB/s
GPUAMG:  Solving for pd, Initial residual = 0.00242146, Final residual = 0.000104242, No Iterations 5
[1] Building level 0
[0] Building level 0
[3] Building level 0
[2] Building level 0
[1] Building level 1
[0] Building level 1
[2] Building level 1
[3] Building level 1
[1] Building level 2
[0] Building level 2
[2] Building level 2
[3] Building level 2
[1] Building level 3
[0] Building level 3
[2] Building level 3
[3] Building level 3
[1] Building level 4
[3] Building level 4
[0] Building level 4
[2] Building level 4
[1] Building level 5
[3] Building level 5
[0] Building level 5
[2] Building level 5
[1] Building level 6
[3] Building level 6
[0] Building level 6
[1] Building level 7
[2] Building level 6
[3] Building level 7
[1] Building level 8
[0] Building level 7
[1] Building level 9
[3] Building level 8
[1] Building level 10
[1] Building level 11
[1] Building level 12
[1] Building level 13
[1] Building level 14
[3] Building level 9
[2] Building level 7
[0] Building level 8
[3] Building level 10
[3] Building level 11
[3] Building level 12
[3] Building level 13
[3] Building level 14
[0] Building level 9
[0] Building level 10
[2] Building level 8
[0] Building level 11
[0] Building level 12
[0] Building level 13
[0] Building level 14
14 Level construction complete
[2] Building level 9
[2] Building level 10
[2] Building level 11
[2] Building level 12
[2] Building level 13
[2] Building level 14
initial dot_x = 119985
Iter #1 residual = 0.00118973
Iter #2 residual = 0.000635729
Iter #3 residual = 0.000361898
Iter #4 residual = 0.000218852
Iter #5 residual = 0.000133285
Iter #6 residual = 8.31985e-05
Iter #7 residual = 5.21753e-05
GPU: 7 iters: 1.75878 s: 2.60468 GB/s
GPUAMG:  Solving for pd, Initial residual = 0.00103231, Final residual = 3.30983e-05, No Iterations 7
[1] Building level 0
[0] Building level 0
[2] Building level 0
[3] Building level 0
[0] Building level 1
[1] Building level 1
[2] Building level 1
[3] Building level 1
[0] Building level 2
[1] Building level 2
[2] Building level 2
[3] Building level 2
[0] Building level 3
[1] Building level 3
[2] Building level 3
[3] Building level 3
[1] Building level 4
[0] Building level 4
[3] Building level 4
[2] Building level 4
[1] Building level 5
[0] Building level 5
[3] Building level 5
[2] Building level 5
[1] Building level 6
[0] Building level 6
[1] Building level 7
[3] Building level 6
[2] Building level 6
[0] Building level 7
[1] Building level 8
[1] Building level 9
[0] Building level 8
[1] Building level 10
[1] Building level 11
[3] Building level 7
[1] Building level 12
[1] Building level 13
[1] Building level 14
[0] Building level 9
[2] Building level 7
[0] Building level 10
[0] Building level 11
[0] Building level 12
[0] Building level 13
[0] Building level 14
14 Level construction complete
[3] Building level 8
[2] Building level 8
[3] Building level 9
[2] Building level 9
[3] Building level 10
[3] Building level 11
[2] Building level 10
[3] Building level 12
[3] Building level 13
[3] Building level 14
[2] Building level 11
[2] Building level 12
[2] Building level 13
[2] Building level 14
initial dot_x = 114445
Iter #1 residual = 0.000154984
Iter #2 residual = 9.58844e-05
Iter #3 residual = 5.80186e-05
Iter #4 residual = 3.66849e-05
Iter #5 residual = 2.31304e-05
Iter #6 residual = 1.49443e-05
Iter #7 residual = 9.705e-06
Iter #8 residual = 6.37632e-06
Iter #9 residual = 4.20191e-06
Iter #10 residual = 2.85175e-06
Iter #11 residual = 1.98155e-06
Iter #12 residual = 1.41338e-06
Iter #13 residual = 1.02593e-06
Iter #14 residual = 7.50647e-07
Iter #15 residual = 5.57128e-07
Iter #16 residual = 4.11589e-07
Iter #17 residual = 3.10486e-07
Iter #18 residual = 2.27373e-07
Iter #19 residual = 1.8257e-07
Iter #20 residual = 1.24859e-07
Iter #21 residual = 1.20839e-07
GPU: 21 iters: 4.77117 s: 2.88047 GB/s
GPUAMG:  Solving for pd, Initial residual = 0.000384233, Final residual = 6.25578e-08, No Iterations 21
time step continuity errors : sum local = 2.88236e-12, global = 1.16938e-23, cumulative = 9.98433e-24
ExecutionTime = 521.93 s  ClockTime = 537 s

Courant Number mean: 4.49206e-05 max: 0.00971308 velocity magnitude: 0.14937
Time = 0.01

MULES: Solving for alpha1
Liquid phase volume fraction = 0.00275421  Min(alpha1) = -1.42725e-29  Max(alpha1) = 1
MULES: Solving for alpha1
Liquid phase volume fraction = 0.00275421  Min(alpha1) = -3.11241e-29  Max(alpha1) = 1
[1] Building level 0
[0] Building level 0
[2] Building level 0
[3] Building level 0
[0] Building level 1
Reconstruction on level 1
[1] Building level 1
[2] Building level 1
[3] Building level 1
[1] Building level 2
[2] Building level 2
[1] Building level 3
[2] Building level 3
Creating AMGLevel 
[0] Building level 2
Reconstruction on level 2
[3] Building level 2
[1] Building level 4
[2] Building level 4
[1] Building level 5
[2] Building level 5
Creating AMGLevel 
[0] Building level 3
Reconstruction on level 3
[1] Building level 6
[3] Building level 3
[2] Building level 6
[1] Building level 7
[1] Building level 8
[1] Building level 9
[2] Building level 7
[1] Building level 10
[1] Building level 11
[1] Building level 12
[1] Building level 13
[1] Building level 14
[2] Building level 8
[2] Building level 9
[2] Building level 10
[2] Building level 11
[2] Building level 12
[2] Building level 13
[2] Building level 14
Creating AMGLevel 
[0] Building level 4
Reconstruction on level 4
[3] Building level 4
Creating AMGLevel 
[0] Building level 5
Reconstruction on level 5
[3] Building level 5
Creating AMGLevel 
[0] Building level 6
Reconstruction on level 6
[3] Building level 6
Creating AMGLevel 
[0] Building level 7
Reconstruction on level 7
[3] Building level 7
Creating AMGLevel 
[0] Building level 8
Reconstruction on level 8
Creating AMGLevel 
[0] Building level 9
Reconstruction on level 9
[3] Building level 8
Creating AMGLevel 
[0] Building level 10
Reconstruction on level 10
Creating AMGLevel 
[0] Building level 11
Reconstruction on level 11
Creating AMGLevel 
[0] Building level 12
Reconstruction on level 12
[3] Building level 9
Creating AMGLevel 
[0] Building level 13
Reconstruction on level 13
Creating AMGLevel 
[0] Building level 14
Reconstruction on level 14
Creating AMGLevel 
14 Level construction complete
[3] Building level 10
[3] Building level 11
[3] Building level 12
[3] Building level 13
[3] Building level 14
initial dot_x = 113854
Iter #1 residual = 0.00136268
Iter #2 residual = 0.000758085
Iter #3 residual = 0.000436281
Iter #4 residual = 0.000270013
Iter #5 residual = 0.000165782
GPU: 5 iters: 1.27783 s: 2.56074 GB/s
GPUAMG:  Solving for pd, Initial residual = 0.00258329, Final residual = 0.000105444, No Iterations 5
[1] Building level 0
[0] Building level 0
[3] Building level 0
[2] Building level 0
[2] Building level 1
[1] Building level 1
[0] Building level 1
[3] Building level 1
[2] Building level 2
[3] Building level 2
[1] Building level 2
[0] Building level 2
[2] Building level 3
[3] Building level 3
[0] Building level 3
[1] Building level 3
[2] Building level 4
[1] Building level 4
[3] Building level 4
[0] Building level 4
[2] Building level 5
[3] Building level 5
[1] Building level 5
[0] Building level 5
[2] Building level 6
[3] Building level 6
[1] Building level 6
[0] Building level 6
[2] Building level 7
[3] Building level 7
[1] Building level 7
[0] Building level 7
[2] Building level 8
[3] Building level 8
[1] Building level 8
[2] Building level 9
[3] Building level 9
[2] Building level 10
[3] Building level 10
[0] Building level 8
[2] Building level 11
[1] Building level 9
[3] Building level 11
[2] Building level 12
[3] Building level 12
[2] Building level 13
[2] Building level 14
[3] Building level 13
[3] Building level 14
[1] Building level 10
[1] Building level 11
[0] Building level 9
[1] Building level 12
[1] Building level 13
[1] Building level 14
[0] Building level 10
[0] Building level 11
[0] Building level 12
[0] Building level 13
[0] Building level 14
14 Level construction complete
initial dot_x = 119160
Iter #1 residual = 0.00117082
Iter #2 residual = 0.000631724
Iter #3 residual = 0.000360557
Iter #4 residual = 0.000220251
Iter #5 residual = 0.000135385
Iter #6 residual = 8.58646e-05
Iter #7 residual = 5.49692e-05
GPU: 7 iters: 1.68699 s: 2.71552 GB/s
GPUAMG:  Solving for pd, Initial residual = 0.00101477, Final residual = 3.61986e-05, No Iterations 7
[1] Building level 0
[0] Building level 0
[2] Building level 0
[3] Building level 0
[0] Building level 1
[1] Building level 1
[2] Building level 1
[3] Building level 1
[1] Building level 2
[0] Building level 2
[2] Building level 2
[3] Building level 2
[1] Building level 3
[0] Building level 3
[2] Building level 3
[3] Building level 3
[1] Building level 4
[0] Building level 4
[2] Building level 4
[3] Building level 4
[1] Building level 5
[0] Building level 5
[2] Building level 5
[3] Building level 5
[1] Building level 6
[1] Building level 7
[0] Building level 6
[2] Building level 6
[1] Building level 8
[1] Building level 9
[3] Building level 6
[1] Building level 10
[1] Building level 11
[1] Building level 12
[1] Building level 13
[1] Building level 14
[0] Building level 7
[2] Building level 7
[0] Building level 8
[3] Building level 7
[2] Building level 8
[0] Building level 9
[0] Building level 10
[2] Building level 9
[0] Building level 11
[3] Building level 8
[0] Building level 12
[0] Building level 13
[0] Building level 14
14 Level construction complete
[2] Building level 10
[2] Building level 11
[2] Building level 12
[2] Building level 13
[2] Building level 14
[3] Building level 9
[3] Building level 10
[3] Building level 11
[3] Building level 12
[3] Building level 13
[3] Building level 14
initial dot_x = 114375
Iter #1 residual = 0.00015143
Iter #2 residual = 9.5511e-05
Iter #3 residual = 6.01455e-05
Iter #4 residual = 3.99233e-05
Iter #5 residual = 2.65378e-05
Iter #6 residual = 1.78499e-05
Iter #7 residual = 1.21793e-05
Iter #8 residual = 8.53193e-06
Iter #9 residual = 6.10589e-06
Iter #10 residual = 4.4173e-06
Iter #11 residual = 3.24757e-06
Iter #12 residual = 2.39685e-06
Iter #13 residual = 1.781e-06
Iter #14 residual = 1.33019e-06
Iter #15 residual = 9.96001e-07
Iter #16 residual = 7.53461e-07
Iter #17 residual = 5.65213e-07
Iter #18 residual = 4.34622e-07
Iter #19 residual = 3.23966e-07
Iter #20 residual = 2.54981e-07
Iter #21 residual = 1.90398e-07
Iter #22 residual = 1.5008e-07
Iter #23 residual = 1.11238e-07
Iter #24 residual = 1.10151e-07
GPU: 24 iters: 5.31602 s: 2.95456 GB/s
GPUAMG:  Solving for pd, Initial residual = 0.000337891, Final residual = 5.9373e-08, No Iterations 24
time step continuity errors : sum local = 2.72729e-12, global = -1.02364e-26, cumulative = 9.9741e-24
ExecutionTime = 575.38 s  ClockTime = 591 s

End

Finalising parallel run
