 Data for JOB [42362,1] offset 0

 ========================   JOB MAP   ========================

 Data for node: ivb106	Num slots: 10	Max slots: 0	Num procs: 10
 	Process OMPI jobid: [42362,1] App: 0 Process rank: 0
 	Process OMPI jobid: [42362,1] App: 0 Process rank: 1
 	Process OMPI jobid: [42362,1] App: 0 Process rank: 2
 	Process OMPI jobid: [42362,1] App: 0 Process rank: 3
 	Process OMPI jobid: [42362,1] App: 0 Process rank: 4
 	Process OMPI jobid: [42362,1] App: 0 Process rank: 5
 	Process OMPI jobid: [42362,1] App: 0 Process rank: 6
 	Process OMPI jobid: [42362,1] App: 0 Process rank: 7
 	Process OMPI jobid: [42362,1] App: 0 Process rank: 8
 	Process OMPI jobid: [42362,1] App: 0 Process rank: 9

 =============================================================
[ivb106:12008] MCW rank 2 bound to socket 0[core 2[hwt 0]]: [././B/././././././.][./././././././././.]
[ivb106:12008] MCW rank 3 bound to socket 0[core 3[hwt 0]]: [./././B/./././././.][./././././././././.]
[ivb106:12008] MCW rank 4 bound to socket 0[core 4[hwt 0]]: [././././B/././././.][./././././././././.]
[ivb106:12008] MCW rank 5 bound to socket 0[core 5[hwt 0]]: [./././././B/./././.][./././././././././.]
[ivb106:12008] MCW rank 6 bound to socket 0[core 6[hwt 0]]: [././././././B/././.][./././././././././.]
[ivb106:12008] MCW rank 7 bound to socket 0[core 7[hwt 0]]: [./././././././B/./.][./././././././././.]
[ivb106:12008] MCW rank 8 bound to socket 0[core 8[hwt 0]]: [././././././././B/.][./././././././././.]
[ivb106:12008] MCW rank 9 bound to socket 0[core 9[hwt 0]]: [./././././././././B][./././././././././.]
[ivb106:12008] MCW rank 0 bound to socket 0[core 0[hwt 0]]: [B/././././././././.][./././././././././.]
[ivb106:12008] MCW rank 1 bound to socket 0[core 1[hwt 0]]: [./B/./././././././.][./././././././././.]
/*---------------------------------------------------------------------------*\
| =========                 |                                                 |
| \\      /  F ield         | foam-extend: Open Source CFD                    |
|  \\    /   O peration     | Version:     3.1                                |
|   \\  /    A nd           | Web:         http://www.extend-project.de       |
|    \\/     M anipulation  |                                                 |
\*---------------------------------------------------------------------------*/
Build    : 3.1-e2da948002a2
Exec     : pimpleDyMFoam -parallel
Date     : May 22 2016
Time     : 19:05:20
Host     : ivb106
PID      : 12010
CtrlDict : /home-2/vplatonov/foam/foam-extend-3.1/etc/controlDict
Case     : /home/vplatonov/tests/3D-mesh1-of3.1
nProcs   : 10
Slaves : 
9
(
ivb106.12011
ivb106.12012
ivb106.12013
ivb106.12014
ivb106.12015
ivb106.12016
ivb106.12017
ivb106.12018
ivb106.12019
)

Pstream initialized with:
    floatTransfer     : 0
    nProcsSimpleSum   : 0
    commsType         : blocking
SigFpe   : Enabling floating point exception trapping (FOAM_SIGFPE).

// * * * * * * * * * * * * * * * * * * * * * * * * * * * * * * * * * * * * * //
Create time

Create dynamic mesh for time = 0

Selecting dynamicFvMesh dynamicMotionSolverFvMesh
Selecting motion solver: displacementLaplacian
Selecting motion diffusion: quadratic
Selecting motion diffusion: inverseDistance
Reading field p

Reading field U

Reading/calculating face flux field phi

Selecting incompressible transport model Newtonian
Selecting turbulence model type LESModel
Selecting LES turbulence model oneEqEddy
oneEqEddyCoeffs
{
    ce              1.048;
    ck              0.094;
}

Reading field rAU if present


Starting time loop

Courant Number mean: 0 max: 0.0007592825 velocity magnitude: 0.4779
Reading old state
Before setting displacements
GAMGPCG:  Solving for cellDisplacementx, Initial residual = 0, Final residual = 0, No Iterations 0
GAMGPCG:  Solving for cellDisplacementy, Initial residual = 0, Final residual = 0, No Iterations 0
GAMGPCG:  Solving for cellDisplacementz, Initial residual = 0, Final residual = 0, No Iterations 0
Time = 5e-06

GAMGPCG:  Solving for cellDisplacementx, Initial residual = 0, Final residual = 0, No Iterations 0
GAMGPCG:  Solving for cellDisplacementy, Initial residual = 0, Final residual = 0, No Iterations 0
GAMGPCG:  Solving for cellDisplacementz, Initial residual = 0, Final residual = 0, No Iterations 0
volume continuity errors : volume = 4.535015, max error = 0, sum local = 0, global = 0
smoothSolver:  Solving for Ux, Initial residual = 1, Final residual = 2.696807e-08, No Iterations 1
smoothSolver:  Solving for Uy, Initial residual = 1, Final residual = 2.858035e-08, No Iterations 1
smoothSolver:  Solving for Uz, Initial residual = 0.9999962, Final residual = 2.828121e-08, No Iterations 1
Iter #0 residual = nan
Iter #1 residual = nan
Iter #2 residual = nan
Iter #3 residual = nan
Iter #4 residual = nan
Iter #5 residual = nan
Iter #6 residual = nan
Iter #7 residual = nan
Iter #8 residual = nan
Iter #9 residual = nan
Iter #10 residual = nan
Iter #11 residual = nan
Iter #12 residual = nan
Iter #13 residual = nan
Iter #14 residual = nan
Iter #15 residual = nan
Iter #16 residual = nan
Iter #17 residual = nan
Iter #18 residual = nan
Iter #19 residual = nan
amgSolver:  Solving for p, Initial residual = 1, Final residual = nan, No Iterations 20
Iter #0 residual = nan
Iter #1 residual = nan
Iter #2 residual = nan
Iter #3 residual = nan
Iter #4 residual = nan
Iter #5 residual = nan
Iter #6 residual = nan
Iter #7 residual = nan
Iter #8 residual = nan
Iter #9 residual = nan
Iter #10 residual = nan
Iter #11 residual = nan
Iter #12 residual = nan
Iter #13 residual = nan
Iter #14 residual = nan
Iter #15 residual = nan
Iter #16 residual = nan
Iter #17 residual = nan
Iter #18 residual = nan
Iter #19 residual = nan
amgSolver:  Solving for p, Initial residual = nan, Final residual = nan, No Iterations 20
time step continuity errors : sum local = nan, global = nan, cumulative = nan
Moving mesh time step continuity errors : sum local = nan, global = nan, cumulative = nan
Iter #0 residual = nan
Iter #1 residual = nan
Iter #2 residual = nan
Iter #3 residual = nan
Iter #4 residual = nan
Iter #5 residual = nan
Iter #6 residual = nan
Iter #7 residual = nan
Iter #8 residual = nan
Iter #9 residual = nan
Iter #10 residual = nan
Iter #11 residual = nan
Iter #12 residual = nan
Iter #13 residual = nan
Iter #14 residual = nan
Iter #15 residual = nan
Iter #16 residual = nan
Iter #17 residual = nan
Iter #18 residual = nan
Iter #19 residual = nan
amgSolver:  Solving for p, Initial residual = nan, Final residual = nan, No Iterations 20
Iter #0 residual = nan
Iter #1 residual = nan
Iter #2 residual = nan
Iter #3 residual = nan
Iter #4 residual = nan
Iter #5 residual = nan
Iter #6 residual = nan
Iter #7 residual = nan
Iter #8 residual = nan
Iter #9 residual = nan
Iter #10 residual = nan
Iter #11 residual = nan
Iter #12 residual = nan
Iter #13 residual = nan
Iter #14 residual = nan
Iter #15 residual = nan
Iter #16 residual = nan
Iter #17 residual = nan
Iter #18 residual = nan
Iter #19 residual = nan
amgSolver:  Solving for p, Initial residual = nan, Final residual = nan, No Iterations 20
time step continuity errors : sum local = nan, global = nan, cumulative = nan
Moving mesh time step continuity errors : sum local = nan, global = nan, cumulative = nan
smoothSolver:  Solving for k, Initial residual = nan, Final residual = nan, No Iterations 1000
ExecutionTime = 294.94 s  ClockTime = 296 s

Courant Number mean: nan max: nan velocity magnitude: nan
yForce = nan
Y= nan
Vy= nan
Time = 1e-05

GAMGPCG:  Solving for cellDisplacementx, Initial residual = 0, Final residual = 0, No Iterations 0
GAMGPCG:  Solving for cellDisplacementy:  solution singularity
GAMGPCG:  Solving for cellDisplacementz, Initial residual = 0, Final residual = 0, No Iterations 0
volume continuity errors : volume = nan, max error = 0, sum local = nan, global = nan
smoothSolver:  Solving for Ux, Initial residual = nan, Final residual = nan, No Iterations 1000
smoothSolver:  Solving for Uy, Initial residual = nan, Final residual = nan, No Iterations 1000
smoothSolver:  Solving for Uz, Initial residual = nan, Final residual = nan, No Iterations 1000
Fine level direct solution
Iter #0 residual = nan
Fine level direct solution
Iter #1 residual = nan
Fine level direct solution
Iter #2 residual = nan
Fine level direct solution
Iter #3 residual = nan
Fine level direct solution
Iter #4 residual = nan
Fine level direct solution
Iter #5 residual = nan
Fine level direct solution
Iter #6 residual = nan
Fine level direct solution
Iter #7 residual = nan
Fine level direct solution
Iter #8 residual = nan
Fine level direct solution
Iter #9 residual = nan
Fine level direct solution
Iter #10 residual = nan
Fine level direct solution
Iter #11 residual = nan
Fine level direct solution
Iter #12 residual = nan
Fine level direct solution
Iter #13 residual = nan
Fine level direct solution
Iter #14 residual = nan
Fine level direct solution
Iter #15 residual = nan
Fine level direct solution
Iter #16 residual = nan
Fine level direct solution
Iter #17 residual = nan
Fine level direct solution
Iter #18 residual = nan
Fine level direct solution
Iter #19 residual = nan
amgSolver:  Solving for p, Initial residual = nan, Final residual = nan, No Iterations 20
Fine level direct solution
Iter #0 residual = nan
Fine level direct solution
Iter #1 residual = nan
Fine level direct solution
Iter #2 residual = nan
Fine level direct solution
Iter #3 residual = nan
Fine level direct solution
Iter #4 residual = nan
Fine level direct solution
Iter #5 residual = nan
Fine level direct solution
Iter #6 residual = nan
Fine level direct solution
Iter #7 residual = nan
Fine level direct solution
Iter #8 residual = nan
Fine level direct solution
Iter #9 residual = nan
Fine level direct solution
Iter #10 residual = nan
Fine level direct solution
Iter #11 residual = nan
Fine level direct solution
Iter #12 residual = nan
Fine level direct solution
Iter #13 residual = nan
Fine level direct solution
Iter #14 residual = nan
Fine level direct solution
Iter #15 residual = nan
Fine level direct solution
Iter #16 residual = nan
Fine level direct solution
Iter #17 residual = nan
Fine level direct solution
Iter #18 residual = nan
Fine level direct solution
Iter #19 residual = nan
amgSolver:  Solving for p, Initial residual = nan, Final residual = nan, No Iterations 20
time step continuity errors : sum local = nan, global = nan, cumulative = nan
Moving mesh time step continuity errors : sum local = nan, global = nan, cumulative = nan
Fine level direct solution
Iter #0 residual = nan
Fine level direct solution
Iter #1 residual = nan
Fine level direct solution
Iter #2 residual = nan
Fine level direct solution
Iter #3 residual = nan
Fine level direct solution
Iter #4 residual = nan
Fine level direct solution
Iter #5 residual = nan
Fine level direct solution
Iter #6 residual = nan
Fine level direct solution
Iter #7 residual = nan
Fine level direct solution
Iter #8 residual = nan
Fine level direct solution
Iter #9 residual = nan
Fine level direct solution
Iter #10 residual = nan
Fine level direct solution
Iter #11 residual = nan
Fine level direct solution
Iter #12 residual = nan
Fine level direct solution
Iter #13 residual = nan
Fine level direct solution
Iter #14 residual = nan
Fine level direct solution
Iter #15 residual = nan
Fine level direct solution
Iter #16 residual = nan
Fine level direct solution
Iter #17 residual = nan
Fine level direct solution
Iter #18 residual = nan
Fine level direct solution
Iter #19 residual = nan
amgSolver:  Solving for p, Initial residual = nan, Final residual = nan, No Iterations 20
Fine level direct solution
Iter #0 residual = nan
Fine level direct solution
Iter #1 residual = nan
Fine level direct solution
Iter #2 residual = nan
Fine level direct solution
Iter #3 residual = nan
Fine level direct solution
Iter #4 residual = nan
Fine level direct solution
Iter #5 residual = nan
Fine level direct solution
Iter #6 residual = nan
Fine level direct solution
Iter #7 residual = nan
Fine level direct solution
Iter #8 residual = nan
Fine level direct solution
Iter #9 residual = nan
Fine level direct solution
Iter #10 residual = nan
Fine level direct solution
Iter #11 residual = nan
Fine level direct solution
Iter #12 residual = nan
Fine level direct solution
Iter #13 residual = nan
Fine level direct solution
Iter #14 residual = nan
Fine level direct solution
Iter #15 residual = nan
Fine level direct solution
Iter #16 residual = nan
Fine level direct solution
Iter #17 residual = nan
Fine level direct solution
Iter #18 residual = nan
Fine level direct solution
Iter #19 residual = nan
amgSolver:  Solving for p, Initial residual = nan, Final residual = nan, No Iterations 20
time step continuity errors : sum local = nan, global = nan, cumulative = nan
Moving mesh time step continuity errors : sum local = nan, global = nan, cumulative = nan
smoothSolver:  Solving for k, Initial residual = nan, Final residual = nan, No Iterations 1000
ExecutionTime = 1010.33 s  ClockTime = 1013 s

Courant Number mean: nan max: nan velocity magnitude: nan
yForce = nan
Y= nan
Vy= nan
Time = 1.5e-05

slurmstepd: *** JOB 7081 ON ivb106 CANCELLED AT 2016-05-22T19:35:47 DUE TO TIME LIMIT ***
