 Data for JOB [5022,1] offset 0

 ========================   JOB MAP   ========================

 Data for node: ivb112	Num slots: 4	Max slots: 0	Num procs: 4
 	Process OMPI jobid: [5022,1] App: 0 Process rank: 0
 	Process OMPI jobid: [5022,1] App: 0 Process rank: 1
 	Process OMPI jobid: [5022,1] App: 0 Process rank: 2
 	Process OMPI jobid: [5022,1] App: 0 Process rank: 3

 =============================================================
[ivb112:19560] MCW rank 2 bound to socket 0[core 2[hwt 0]]: [././B/././././././.][./././././././././.]
[ivb112:19560] MCW rank 3 bound to socket 0[core 3[hwt 0]]: [./././B/./././././.][./././././././././.]
[ivb112:19560] MCW rank 0 bound to socket 0[core 0[hwt 0]]: [B/././././././././.][./././././././././.]
[ivb112:19560] MCW rank 1 bound to socket 0[core 1[hwt 0]]: [./B/./././././././.][./././././././././.]
1
0
2
3
/*---------------------------------------------------------------------------*\
| =========                 |                                                 |
| \\      /  F ield         | foam-extend: Open Source CFD                    |
|  \\    /   O peration     | Version:     3.1                                |
|   \\  /    A nd           | Web:         http://www.extend-project.de       |
|    \\/     M anipulation  |                                                 |
\*---------------------------------------------------------------------------*/
Build    : 3.1-e2da948002a2
Exec     : pimpleDyMFoam -parallel
Date     : May 27 2016
Time     : 10:59:02
Host     : ivb112
PID      : 19600
CtrlDict : /home-2/vplatonov/foam/foam-extend-3.1/etc/controlDict
Case     : /home/vplatonov/tests/3D-mesh1-of3.1
nProcs   : 4
Slaves : 
3
(
ivb112.19593
ivb112.19605
ivb112.19594
)

Pstream initialized with:
    floatTransfer     : 0
    nProcsSimpleSum   : 0
    commsType         : blocking
SigFpe   : Enabling floating point exception trapping (FOAM_SIGFPE).

// * * * * * * * * * * * * * * * * * * * * * * * * * * * * * * * * * * * * * //
Create time

Create dynamic mesh for time = 0

Selecting dynamicFvMesh dynamicMotionSolverFvMesh
Selecting motion solver: displacementLaplacian
Selecting motion diffusion: quadratic
Selecting motion diffusion: inverseDistance
Reading field p

Reading field U

Reading/calculating face flux field phi

Selecting incompressible transport model Newtonian
Selecting turbulence model type LESModel
Selecting LES turbulence model oneEqEddy
oneEqEddyCoeffs
{
    ce              1.048;
    ck              0.094;
}

Reading field rAU if present


Starting time loop

Courant Number mean: 0 max: 0.0007592825 velocity magnitude: 0.4779
Reading old state
Before setting displacements
GAMGPCG:  Solving for cellDisplacementx, Initial residual = 0, Final residual = 0, No Iterations 0
GAMGPCG:  Solving for cellDisplacementy, Initial residual = 0, Final residual = 0, No Iterations 0
GAMGPCG:  Solving for cellDisplacementz, Initial residual = 0, Final residual = 0, No Iterations 0
Time = 5e-06

GAMGPCG:  Solving for cellDisplacementx, Initial residual = 0, Final residual = 0, No Iterations 0
GAMGPCG:  Solving for cellDisplacementy, Initial residual = 0, Final residual = 0, No Iterations 0
GAMGPCG:  Solving for cellDisplacementz, Initial residual = 0, Final residual = 0, No Iterations 0
volume continuity errors : volume = 4.535015, max error = 0, sum local = 0, global = 0
smoothSolver:  Solving for Ux, Initial residual = 1, Final residual = 9.457309e-09, No Iterations 1
smoothSolver:  Solving for Uy, Initial residual = 1, Final residual = 1.115892e-08, No Iterations 1
smoothSolver:  Solving for Uz, Initial residual = 0.9999962, Final residual = 4.021583e-08, No Iterations 1
Created persistent data with name p
Computing AINV with droptol 0.02
GPU: 611 iters: 29.84741 s: 31.23047 GB/s
Total exec time 29.84741 Total comm time 3.942735
OGPUBICGS:  Solving for p, Initial residual = 1, Final residual = 0.008850569, No Iterations 611
Computing AINV with droptol 0.02
GPU: 118 iters: 6.057115 s: 29.72078 GB/s
Total exec time 35.90452 Total comm time 4.8604
OGPUBICGS:  Solving for p, Initial residual = 0.0004680282, Final residual = 9.242966e-06, No Iterations 118
time step continuity errors : sum local = 2.080487e-09, global = -3.817116e-10, cumulative = -3.817116e-10
Moving mesh time step continuity errors : sum local = 2.080487e-09, global = -3.817116e-10, cumulative = -7.634231e-10
GPU: 32 iters: 1.677462 s: 29.10323 GB/s
Total exec time 37.58198 Total comm time 5.114476
OGPUBICGS:  Solving for p, Initial residual = 0.0001096032, Final residual = 9.929527e-06, No Iterations 32
GPU: 677 iters: 34.42671 s: 30.0011 GB/s
Total exec time 72.00869 Total comm time 10.28363
OGPUBICGS:  Solving for p, Initial residual = 4.610963e-05, Final residual = 9.471668e-08, No Iterations 677
time step continuity errors : sum local = 2.133069e-11, global = -3.273379e-12, cumulative = -7.666965e-10
Moving mesh time step continuity errors : sum local = 2.133069e-11, global = -3.273379e-12, cumulative = -7.699699e-10
smoothSolver:  Solving for k, Initial residual = 1, Final residual = 1.500219e-11, No Iterations 2
ExecutionTime = 194.26 s  ClockTime = 197 s

Courant Number mean: 7.683911e-05 max: 0.002864392 velocity magnitude: 0.9548663
yForce = -35.46736
Y= -5.475755e-11
Vy= -2.1903e-05
Time = 1e-05

GAMGPCG:  Solving for cellDisplacementx, Initial residual = 0, Final residual = 0, No Iterations 0
Total solver time is 0
Total solver time is 0
Total solver time is 1
GAMGPCG:  Solving for cellDisplacementy, Initial residual = 1, Final residual = 1.451471e-09, No Iterations 1
GAMGPCG:  Solving for cellDisplacementz, Initial residual = 0, Final residual = 0, No Iterations 0
volume continuity errors : volume = 4.535015, max error = 1.083327e-08, sum local = 6.232637e-15, global = 1.702192e-18
smoothSolver:  Solving for Ux, Initial residual = 0.9975412, Final residual = 5.467672e-07, No Iterations 1
smoothSolver:  Solving for Uy, Initial residual = 0.3317677, Final residual = 1.321473e-06, No Iterations 1
smoothSolver:  Solving for Uz, Initial residual = 0.317379, Final residual = 3.957066e-07, No Iterations 1
GPU: 593 iters: 30.18694 s: 29.9695 GB/s
Total exec time 102.1956 Total comm time 14.80539
OGPUBICGS:  Solving for p, Initial residual = 0.003644913, Final residual = 3.641523e-05, No Iterations 593
GPU: 129 iters: 6.62137 s: 29.72253 GB/s
Total exec time 108.817 Total comm time 15.80774
OGPUBICGS:  Solving for p, Initial residual = 0.001411734, Final residual = 1.3863e-05, No Iterations 129
time step continuity errors : sum local = 1.040552e-09, global = 3.191907e-10, cumulative = -4.507792e-10
Moving mesh time step continuity errors : sum local = 1.040552e-09, global = 3.191907e-10, cumulative = -1.315884e-10
GPU: 143 iters: 7.31254 s: 29.83402 GB/s
Total exec time 116.1295 Total comm time 16.89741
OGPUBICGS:  Solving for p, Initial residual = 0.0003155601, Final residual = 9.491042e-06, No Iterations 143
GPU: 568 iters: 28.91716 s: 29.96654 GB/s
Total exec time 145.0467 Total comm time 21.24351
OGPUBICGS:  Solving for p, Initial residual = 0.0001187496, Final residual = 5.75122e-08, No Iterations 568
time step continuity errors : sum local = 4.31241e-12, global = 2.264346e-12, cumulative = -1.293241e-10
Moving mesh time step continuity errors : sum local = 4.31241e-12, global = 2.264346e-12, cumulative = -1.270597e-10
smoothSolver:  Solving for k, Initial residual = 0.00878267, Final residual = 3.638998e-09, No Iterations 1
ExecutionTime = 315.89 s  ClockTime = 319 s

Courant Number mean: 7.684357e-05 max: 0.002857056 velocity magnitude: 0.9524207
yForce = 71.90425
Y= -5.326052e-11
Vy= 2.250178e-05
Time = 1.5e-05

GAMGPCG:  Solving for cellDisplacementx, Initial residual = 0, Final residual = 0, No Iterations 0
Total solver time is 0
Total solver time is 0
Total solver time is 1
GAMGPCG:  Solving for cellDisplacementy, Initial residual = 0.03365241, Final residual = 1.420207e-09, No Iterations 1
GAMGPCG:  Solving for cellDisplacementz, Initial residual = 0, Final residual = 0, No Iterations 0
volume continuity errors : volume = 4.535015, max error = 1.305811e-08, sum local = 7.097027e-15, global = -8.621644e-20
smoothSolver:  Solving for Ux, Initial residual = 0.9921613, Final residual = 5.446696e-07, No Iterations 1
smoothSolver:  Solving for Uy, Initial residual = 0.1842701, Final residual = 8.071704e-07, No Iterations 1
smoothSolver:  Solving for Uz, Initial residual = 0.8146316, Final residual = 1.001929e-06, No Iterations 1
GPU: 544 iters: 27.68324 s: 29.9796 GB/s
Total exec time 172.73 Total comm time 25.37276
OGPUBICGS:  Solving for p, Initial residual = 0.002801832, Final residual = 2.763297e-05, No Iterations 544
GPU: 406 iters: 20.65117 s: 29.99338 GB/s
Total exec time 193.3811 Total comm time 28.45417
OGPUBICGS:  Solving for p, Initial residual = 0.0648272, Final residual = 0.0006018617, No Iterations 406
time step continuity errors : sum local = 3.221275e-10, global = -2.869443e-10, cumulative = -4.14004e-10
Moving mesh time step continuity errors : sum local = 3.221275e-10, global = -2.869443e-10, cumulative = -7.009483e-10
GPU: 485 iters: 24.71326 s: 29.94027 GB/s
Total exec time 218.0944 Total comm time 32.17851
OGPUBICGS:  Solving for p, Initial residual = 0.01625822, Final residual = 0.0001334222, No Iterations 485
GPU: 810 iters: 41.19656 s: 29.99632 GB/s
Total exec time 259.2909 Total comm time 38.35637
OGPUBICGS:  Solving for p, Initial residual = 0.007529145, Final residual = 2.716092e-08, No Iterations 810
time step continuity errors : sum local = 8.716709e-15, global = -1.215223e-15, cumulative = -7.009495e-10
Moving mesh time step continuity errors : sum local = 8.716709e-15, global = -1.215223e-15, cumulative = -7.009507e-10
smoothSolver:  Solving for k, Initial residual = 0.003835654, Final residual = 1.512959e-09, No Iterations 1
ExecutionTime = 478.48 s  ClockTime = 483 s

Courant Number mean: 7.684357e-05 max: 0.002858868 velocity magnitude: 0.953025
yForce = -22.32871
Y= 2.477532e-11
Vy= 8.712567e-06
Time = 2e-05

GAMGPCG:  Solving for cellDisplacementx, Initial residual = 0, Final residual = 0, No Iterations 0
Total solver time is 0
Total solver time is 0
Total solver time is 1
GAMGPCG:  Solving for cellDisplacementy, Initial residual = 1, Final residual = 1.40903e-09, No Iterations 1
GAMGPCG:  Solving for cellDisplacementz, Initial residual = 0, Final residual = 0, No Iterations 0
volume continuity errors : volume = 4.535015, max error = 1.123644e-08, sum local = 7.112824e-15, global = -4.078458e-19
smoothSolver:  Solving for Ux, Initial residual = 0.05248026, Final residual = 5.06085e-08, No Iterations 1
smoothSolver:  Solving for Uy, Initial residual = 0.01354677, Final residual = 8.840725e-08, No Iterations 1
smoothSolver:  Solving for Uz, Initial residual = 0.9608276, Final residual = 1.172335e-06, No Iterations 1
GPU: 39 iters: 2.025522 s: 29.37457 GB/s
Total exec time 261.3165 Total comm time 38.65457
OGPUBICGS:  Solving for p, Initial residual = 0.2251151, Final residual = 0.001890866, No Iterations 39
GPU: 139 iters: 7.091946 s: 29.90153 GB/s
Total exec time 268.4084 Total comm time 39.71494
OGPUBICGS:  Solving for p, Initial residual = 0.01212168, Final residual = 0.0001201942, No Iterations 139
time step continuity errors : sum local = 3.265925e-11, global = -5.177244e-12, cumulative = -7.06128e-10
Moving mesh time step continuity errors : sum local = 3.265925e-11, global = -5.177244e-12, cumulative = -7.113052e-10
GPU: 209 iters: 10.65402 s: 29.92792 GB/s
Total exec time 279.0624 Total comm time 41.30332
OGPUBICGS:  Solving for p, Initial residual = 0.00421046, Final residual = 4.13938e-05, No Iterations 209
GPU: 633 iters: 32.19568 s: 29.99508 GB/s
Total exec time 311.2581 Total comm time 46.12498
OGPUBICGS:  Solving for p, Initial residual = 0.00179393, Final residual = 7.593136e-08, No Iterations 633
time step continuity errors : sum local = 2.052406e-14, global = 1.02809e-14, cumulative = -7.11295e-10
Moving mesh time step continuity errors : sum local = 2.052406e-14, global = 1.02809e-14, cumulative = -7.112847e-10
smoothSolver:  Solving for k, Initial residual = 0.002273366, Final residual = 8.912896e-10, No Iterations 1
ExecutionTime = 578.67 s  ClockTime = 583 s

Courant Number mean: 7.684429e-05 max: 0.002856743 velocity magnitude: 0.9523166
yForce = -4.051428
Y= 6.208318e-11
Vy= 6.210579e-06
Time = 2.5e-05

GAMGPCG:  Solving for cellDisplacementx, Initial residual = 0, Final residual = 0, No Iterations 0
Total solver time is 0
Total solver time is 0
Total solver time is 1
GAMGPCG:  Solving for cellDisplacementy, Initial residual = 0.5784935, Final residual = 1.668648e-09, No Iterations 1
GAMGPCG:  Solving for cellDisplacementz, Initial residual = 0, Final residual = 0, No Iterations 0
volume continuity errors : volume = 4.535015, max error = 1.023087e-08, sum local = 7.130467e-15, global = 1.408843e-18
smoothSolver:  Solving for Ux, Initial residual = 0.02734703, Final residual = 1.808567e-08, No Iterations 1
smoothSolver:  Solving for Uy, Initial residual = 0.004608302, Final residual = 3.142481e-08, No Iterations 1
smoothSolver:  Solving for Uz, Initial residual = 0.7218429, Final residual = 9.641107e-07, No Iterations 1
GPU: 8 iters: 0.4562198 s: 26.75222 GB/s
Total exec time 311.7143 Total comm time 46.19104
OGPUBICGS:  Solving for p, Initial residual = 0.1532299, Final residual = 0.001472814, No Iterations 8
GPU: 151 iters: 7.717427 s: 29.85028 GB/s
Total exec time 319.4318 Total comm time 47.3447
OGPUBICGS:  Solving for p, Initial residual = 0.003725845, Final residual = 3.685829e-05, No Iterations 151
time step continuity errors : sum local = 8.774868e-12, global = 8.090725e-13, cumulative = -7.104756e-10
Moving mesh time step continuity errors : sum local = 8.774868e-12, global = 8.090725e-13, cumulative = -7.096665e-10
GPU: 229 iters: 11.68885 s: 29.88875 GB/s
Total exec time 331.1206 Total comm time 49.095
OGPUBICGS:  Solving for p, Initial residual = 0.0009453279, Final residual = 7.737083e-06, No Iterations 229
GPU: 554 iters: 28.20201 s: 29.9691 GB/s
Total exec time 359.3226 Total comm time 53.31638
OGPUBICGS:  Solving for p, Initial residual = 0.0003301684, Final residual = 9.51351e-08, No Iterations 554
time step continuity errors : sum local = 2.259752e-14, global = -2.019956e-14, cumulative = -7.096867e-10
Moving mesh time step continuity errors : sum local = 2.259752e-14, global = -2.019956e-14, cumulative = -7.097069e-10
smoothSolver:  Solving for k, Initial residual = 0.001554922, Final residual = 6.190271e-10, No Iterations 1
ExecutionTime = 676.43 s  ClockTime = 682 s

Courant Number mean: 7.684439e-05 max: 0.002854616 velocity magnitude: 0.9516076
yForce = 9.355345
Y= 1.075796e-10
Vy= 1.1988e-05
Time = 3e-05

GAMGPCG:  Solving for cellDisplacementx, Initial residual = 0, Final residual = 0, No Iterations 0
Total solver time is 0
Total solver time is 0
Total solver time is 1
GAMGPCG:  Solving for cellDisplacementy, Initial residual = 0.4934504, Final residual = 5.506579e-10, No Iterations 1
GAMGPCG:  Solving for cellDisplacementz, Initial residual = 0, Final residual = 0, No Iterations 0
volume continuity errors : volume = 4.535015, max error = 1.275315e-08, sum local = 7.154702e-15, global = -6.615165e-19
smoothSolver:  Solving for Ux, Initial residual = 0.01763738, Final residual = 8.873963e-09, No Iterations 1
smoothSolver:  Solving for Uy, Initial residual = 0.001254661, Final residual = 1.701595e-08, No Iterations 1
smoothSolver:  Solving for Uz, Initial residual = 0.4798732, Final residual = 2.359459e-06, No Iterations 1
GPU: 2 iters: 0.1498419 s: 20.36295 GB/s
Total exec time 359.4725 Total comm time 53.33652
OGPUBICGS:  Solving for p, Initial residual = 0.1088493, Final residual = 0.0006916431, No Iterations 2
GPU: 45 iters: 2.335112 s: 29.4001 GB/s
Total exec time 361.8076 Total comm time 53.68304
OGPUBICGS:  Solving for p, Initial residual = 0.001314249, Final residual = 1.224093e-05, No Iterations 45
time step continuity errors : sum local = 2.62616e-12, global = -6.448358e-14, cumulative = -7.097714e-10
Moving mesh time step continuity errors : sum local = 2.62616e-12, global = -6.448358e-14, cumulative = -7.098359e-10
GPU: 33 iters: 1.733338 s: 29.04522 GB/s
Total exec time 363.5409 Total comm time 53.94396
OGPUBICGS:  Solving for p, Initial residual = 0.0002641441, Final residual = 9.984988e-06, No Iterations 33
GPU: 585 iters: 29.79968 s: 29.94941 GB/s
Total exec time 393.3406 Total comm time 58.40671
OGPUBICGS:  Solving for p, Initial residual = 0.0001036843, Final residual = 8.319666e-08, No Iterations 585
time step continuity errors : sum local = 1.784226e-14, global = -1.772403e-14, cumulative = -7.098536e-10
Moving mesh time step continuity errors : sum local = 1.784226e-14, global = -1.772403e-14, cumulative = -7.098713e-10
smoothSolver:  Solving for k, Initial residual = 0.001156987, Final residual = 4.66512e-10, No Iterations 1
ExecutionTime = 760.36 s  ClockTime = 766 s

Courant Number mean: 7.684435e-05 max: 0.002852248 velocity magnitude: 0.950818
yForce = -4.937196
Y= 1.598971e-10
Vy= 8.938996e-06
Time = 3.5e-05

GAMGPCG:  Solving for cellDisplacementx, Initial residual = 0, Final residual = 0, No Iterations 0
Total solver time is 0
Total solver time is 0
Total solver time is 1
GAMGPCG:  Solving for cellDisplacementy, Initial residual = 0.391626, Final residual = 6.770398e-10, No Iterations 1
GAMGPCG:  Solving for cellDisplacementz, Initial residual = 0, Final residual = 0, No Iterations 0
volume continuity errors : volume = 4.535015, max error = 1.094094e-08, sum local = 7.163715e-15, global = 4.947343e-19
smoothSolver:  Solving for Ux, Initial residual = 0.0135329, Final residual = 6.761988e-09, No Iterations 1
smoothSolver:  Solving for Uy, Initial residual = 0.0009635959, Final residual = 1.25101e-08, No Iterations 1
smoothSolver:  Solving for Uz, Initial residual = 0.3002741, Final residual = 1.910844e-06, No Iterations 1
GPU: 1 iters: 0.1034737 s: 14.74395 GB/s
Total exec time 393.4441 Total comm time 58.42178
OGPUBICGS:  Solving for p, Initial residual = 0.09114229, Final residual = 0.0003537325, No Iterations 1
GPU: 25 iters: 1.322691 s: 28.83538 GB/s
Total exec time 394.7667 Total comm time 58.61925
OGPUBICGS:  Solving for p, Initial residual = 0.0005348393, Final residual = 9.581657e-06, No Iterations 25
time step continuity errors : sum local = 1.887564e-12, global = -4.147914e-15, cumulative = -7.098755e-10
Moving mesh time step continuity errors : sum local = 1.887564e-12, global = -4.147914e-15, cumulative = -7.098796e-10
GPU: 8 iters: 0.4573641 s: 26.68529 GB/s
Total exec time 395.2241 Total comm time 58.69078
OGPUBICGS:  Solving for p, Initial residual = 8.189528e-05, Final residual = 9.678817e-06, No Iterations 8
GPU: 237 iters: 12.11168 s: 29.85299 GB/s
Total exec time 407.3358 Total comm time 60.50809
OGPUBICGS:  Solving for p, Initial residual = 2.947863e-05, Final residual = 8.292008e-08, No Iterations 237
time step continuity errors : sum local = 1.633274e-14, global = 1.37779e-15, cumulative = -7.098783e-10
Moving mesh time step continuity errors : sum local = 1.633274e-14, global = 1.37779e-15, cumulative = -7.098769e-10
smoothSolver:  Solving for k, Initial residual = 0.0009097904, Final residual = 3.836206e-10, No Iterations 1
ExecutionTime = 823.98 s  ClockTime = 830 s

Courant Number mean: 7.684461e-05 max: 0.002849504 velocity magnitude: 0.9499032
yForce = 0.2552293
Y= 2.049861e-10
Vy= 9.0966e-06
Time = 4e-05

GAMGPCG:  Solving for cellDisplacementx, Initial residual = 0, Final residual = 0, No Iterations 0
Total solver time is 0
Total solver time is 0
Total solver time is 1
GAMGPCG:  Solving for cellDisplacementy, Initial residual = 0.2843403, Final residual = 4.121244e-10, No Iterations 1
GAMGPCG:  Solving for cellDisplacementz, Initial residual = 0, Final residual = 0, No Iterations 0
volume continuity errors : volume = 4.535015, max error = 1.13166e-08, sum local = 7.174466e-15, global = -9.498467e-19
smoothSolver:  Solving for Ux, Initial residual = 0.01095479, Final residual = 5.434703e-09, No Iterations 1
smoothSolver:  Solving for Uy, Initial residual = 0.0008056257, Final residual = 9.99899e-09, No Iterations 1
smoothSolver:  Solving for Uz, Initial residual = 0.4728259, Final residual = 2.449944e-06, No Iterations 1
GPU: 1 iters: 0.1008926 s: 15.12114 GB/s
Total exec time 407.4367 Total comm time 60.52138
OGPUBICGS:  Solving for p, Initial residual = 0.07497376, Final residual = 0.0001328269, No Iterations 1
GPU: 9 iters: 0.5103992 s: 26.9015 GB/s
Total exec time 407.9471 Total comm time 60.59893
OGPUBICGS:  Solving for p, Initial residual = 0.0002789613, Final residual = 9.046822e-06, No Iterations 9
time step continuity errors : sum local = 1.655653e-12, global = 2.596461e-14, cumulative = -7.098509e-10
Moving mesh time step continuity errors : sum local = 1.655653e-12, global = 2.596461e-14, cumulative = -7.09825e-10
GPU: 1 iters: 0.1006001 s: 15.16511 GB/s
Total exec time 408.0477 Total comm time 60.614
OGPUBICGS:  Solving for p, Initial residual = 3.553633e-05, Final residual = 9.55877e-06, No Iterations 1
GPU: 260 iters: 13.28876 s: 29.84921 GB/s
Total exec time 421.3364 Total comm time 62.62154
OGPUBICGS:  Solving for p, Initial residual = 1.527891e-05, Final residual = 9.958048e-08, No Iterations 260
time step continuity errors : sum local = 1.822324e-14, global = 5.698287e-15, cumulative = -7.098193e-10
Moving mesh time step continuity errors : sum local = 1.822324e-14, global = 5.698287e-15, cumulative = -7.098136e-10
smoothSolver:  Solving for k, Initial residual = 0.0007437261, Final residual = 3.250361e-10, No Iterations 1
ExecutionTime = 885.85 s  ClockTime = 892 s

Courant Number mean: 7.684444e-05 max: 0.002846384 velocity magnitude: 0.9488631
yForce = 1.297379
Y= 2.524721e-10
Vy= 9.897788e-06
Time = 4.5e-05

GAMGPCG:  Solving for cellDisplacementx, Initial residual = 0, Final residual = 0, No Iterations 0
Total solver time is 0
Total solver time is 0
Total solver time is 1
GAMGPCG:  Solving for cellDisplacementy, Initial residual = 0.2483273, Final residual = 3.684214e-10, No Iterations 1
GAMGPCG:  Solving for cellDisplacementz, Initial residual = 0, Final residual = 0, No Iterations 0
volume continuity errors : volume = 4.535015, max error = 1.057842e-08, sum local = 7.174899e-15, global = 3.964925e-19
smoothSolver:  Solving for Ux, Initial residual = 0.009360192, Final residual = 4.562131e-09, No Iterations 1
smoothSolver:  Solving for Uy, Initial residual = 0.0006811776, Final residual = 8.223814e-09, No Iterations 1
smoothSolver:  Solving for Uz, Initial residual = 0.4077709, Final residual = 1.40773e-06, No Iterations 1
GPU: 1 iters: 0.1037864 s: 14.69953 GB/s
Total exec time 421.4402 Total comm time 62.63732
OGPUBICGS:  Solving for p, Initial residual = 0.06277143, Final residual = 0.0001008908, No Iterations 1
GPU: 8 iters: 0.4600941 s: 26.52695 GB/s
Total exec time 421.9003 Total comm time 62.70667
OGPUBICGS:  Solving for p, Initial residual = 0.000208149, Final residual = 9.182297e-06, No Iterations 8
time step continuity errors : sum local = 1.574794e-12, global = 5.13956e-15, cumulative = -7.098084e-10
Moving mesh time step continuity errors : sum local = 1.574794e-12, global = 5.13956e-15, cumulative = -7.098033e-10
GPU: 1 iters: 0.1018919 s: 14.97284 GB/s
Total exec time 422.0022 Total comm time 62.72139
OGPUBICGS:  Solving for p, Initial residual = 2.366683e-05, Final residual = 9.582557e-06, No Iterations 1
GPU: 282 iters: 14.42149 s: 29.83204 GB/s
Total exec time 436.4237 Total comm time 64.90972
OGPUBICGS:  Solving for p, Initial residual = 1.162439e-05, Final residual = 9.873617e-08, No Iterations 282
time step continuity errors : sum local = 1.693304e-14, global = 1.675445e-14, cumulative = -7.097865e-10
Moving mesh time step continuity errors : sum local = 1.693304e-14, global = 1.675445e-14, cumulative = -7.097698e-10
smoothSolver:  Solving for k, Initial residual = 0.0006256213, Final residual = 2.835029e-10, No Iterations 1
ExecutionTime = 949.07 s  ClockTime = 955 s

Courant Number mean: 7.684456e-05 max: 0.002842883 velocity magnitude: 0.9482456
yForce = -0.8690396
Y= 3.006193e-10
Vy= 9.361094e-06
Time = 5e-05

GAMGPCG:  Solving for cellDisplacementx, Initial residual = 0, Final residual = 0, No Iterations 0
Total solver time is 0
Total solver time is 0
Total solver time is 1
GAMGPCG:  Solving for cellDisplacementy, Initial residual = 0.2161461, Final residual = 2.732042e-10, No Iterations 1
GAMGPCG:  Solving for cellDisplacementz, Initial residual = 0, Final residual = 0, No Iterations 0
volume continuity errors : volume = 4.535015, max error = 9.681215e-09, sum local = 7.177816e-15, global = 9.232188e-19
smoothSolver:  Solving for Ux, Initial residual = 0.008278626, Final residual = 3.932272e-09, No Iterations 1
smoothSolver:  Solving for Uy, Initial residual = 0.0005947578, Final residual = 6.911816e-09, No Iterations 1
smoothSolver:  Solving for Uz, Initial residual = 0.3329093, Final residual = 8.575391e-07, No Iterations 1
GPU: 1 iters: 0.1027603 s: 14.84632 GB/s
Total exec time 436.5265 Total comm time 64.9238
OGPUBICGS:  Solving for p, Initial residual = 0.05636515, Final residual = 7.738838e-05, No Iterations 1
GPU: 5 iters: 0.3066172 s: 24.87812 GB/s
Total exec time 436.8331 Total comm time 64.97092
OGPUBICGS:  Solving for p, Initial residual = 0.000161371, Final residual = 9.592166e-06, No Iterations 5
time step continuity errors : sum local = 1.552241e-12, global = 3.003725e-14, cumulative = -7.097397e-10
Moving mesh time step continuity errors : sum local = 1.552241e-12, global = 3.003725e-14, cumulative = -7.097097e-10
GPU: 1 iters: 0.100216 s: 15.22324 GB/s
Total exec time 436.9333 Total comm time 64.98518
OGPUBICGS:  Solving for p, Initial residual = 1.946961e-05, Final residual = 9.09246e-06, No Iterations 1
slurmstepd: *** JOB 8375 ON ivb112 CANCELLED AT 2016-05-27T11:16:02 DUE TO TIME LIMIT ***
