 Data for JOB [60919,1] offset 0

 ========================   JOB MAP   ========================

 Data for node: ivb106	Num slots: 3	Max slots: 0	Num procs: 3
 	Process OMPI jobid: [60919,1] App: 0 Process rank: 0
 	Process OMPI jobid: [60919,1] App: 0 Process rank: 1
 	Process OMPI jobid: [60919,1] App: 0 Process rank: 2

 Data for node: ivb108	Num slots: 3	Max slots: 0	Num procs: 3
 	Process OMPI jobid: [60919,1] App: 0 Process rank: 3
 	Process OMPI jobid: [60919,1] App: 0 Process rank: 4
 	Process OMPI jobid: [60919,1] App: 0 Process rank: 5

 =============================================================
[ivb106:26213] MCW rank 0 bound to socket 0[core 0[hwt 0]]: [B/././././././././.][./././././././././.]
[ivb106:26213] MCW rank 1 bound to socket 0[core 1[hwt 0]]: [./B/./././././././.][./././././././././.]
[ivb106:26213] MCW rank 2 bound to socket 0[core 2[hwt 0]]: [././B/././././././.][./././././././././.]
[ivb108:14735] MCW rank 3 bound to socket 0[core 0[hwt 0]]: [B/././././././././.][./././././././././.]
[ivb108:14735] MCW rank 4 bound to socket 0[core 1[hwt 0]]: [./B/./././././././.][./././././././././.]
[ivb108:14735] MCW rank 5 bound to socket 0[core 2[hwt 0]]: [././B/././././././.][./././././././././.]
0
1
2
2
1
0
/*---------------------------------------------------------------------------*\
| =========                 |                                                 |
| \\      /  F ield         | foam-extend: Open Source CFD                    |
|  \\    /   O peration     | Version:     3.1                                |
|   \\  /    A nd           | Web:         http://www.extend-project.de       |
|    \\/     M anipulation  |                                                 |
\*---------------------------------------------------------------------------*/
Build    : 3.1-e2da948002a2
Exec     : interFoam -parallel
Date     : May 20 2016
Time     : 10:35:18
Host     : ivb106
PID      : 26253
CtrlDict : /home-2/vplatonov/foam/foam-extend-3.1/etc/controlDict
Case     : /home/vplatonov/tests/rt12mln
nProcs   : 6
Slaves : 
5
(
ivb106.26246
ivb106.26248
ivb108.14769
ivb108.14765
ivb108.14766
)

Pstream initialized with:
    floatTransfer     : 0
    nProcsSimpleSum   : 0
    commsType         : blocking
SigFpe   : Enabling floating point exception trapping (FOAM_SIGFPE).

// * * * * * * * * * * * * * * * * * * * * * * * * * * * * * * * * * * * * * //
Create time

Create mesh for time = 0


Reading g
Reading field pd

Reading field alpha1

Reading field U

Reading/calculating face flux field phi

Reading transportProperties

Selecting incompressible transport model Newtonian
Selecting incompressible transport model Newtonian
Calculating field g.h

Selecting turbulence model type laminar
time step continuity errors : sum local = 0, global = 0, cumulative = 0
Created persistent data with name pcorr
SGPUPCG:  Solving for pcorr, Initial residual = 0, Final residual = 0, No Iterations 0
time step continuity errors : sum local = 0, global = 0, cumulative = 0
Courant Number mean: 0 max: 0 velocity magnitude: 0

Starting time loop

Courant Number mean: 0 max: 0 velocity magnitude: 0
Time = 0.001

MULES: Solving for alpha1
Liquid phase volume fraction = 0.00275421  Min(alpha1) = 0  Max(alpha1) = 1
MULES: Solving for alpha1
Liquid phase volume fraction = 0.00275421  Min(alpha1) = 0  Max(alpha1) = 1
Created persistent data with name pd
Computing AINV with droptol 0.02
GPU: 7 iters: 0.0951491 s: 65.6401 GB/s
SGPUPCG:  Solving for pd, Initial residual = 1, Final residual = 0.0430137, No Iterations 7
Computing AINV with droptol 0.02
GPU: 185 iters: 1.56535 s: 105.447 GB/s
SGPUPCG:  Solving for pd, Initial residual = 0.0260437, Final residual = 0.00128818, No Iterations 185
GPU: 911 iters: 7.51084 s: 108.22 GB/s
SGPUPCG:  Solving for pd, Initial residual = 0.00731534, Final residual = 9.86499e-08, No Iterations 911
time step continuity errors : sum local = 7.35222e-12, global = -2.45827e-24, cumulative = -2.45827e-24
ExecutionTime = 83.7 s  ClockTime = 98 s

Courant Number mean: 4.8166e-06 max: 0.00215792 velocity magnitude: 0.0337175
Time = 0.002

MULES: Solving for alpha1
Liquid phase volume fraction = 0.00275421  Min(alpha1) = 0  Max(alpha1) = 1
MULES: Solving for alpha1
Liquid phase volume fraction = 0.00275421  Min(alpha1) = 0  Max(alpha1) = 1
GPU: 680 iters: 5.61848 s: 107.986 GB/s
SGPUPCG:  Solving for pd, Initial residual = 0.00479166, Final residual = 0.000232813, No Iterations 680
GPU: 696 iters: 5.74026 s: 108.182 GB/s
SGPUPCG:  Solving for pd, Initial residual = 0.00394735, Final residual = 0.00019375, No Iterations 696
GPU: 957 iters: 7.90216 s: 108.054 GB/s
SGPUPCG:  Solving for pd, Initial residual = 0.00349963, Final residual = 9.9572e-08, No Iterations 957
time step continuity errors : sum local = 4.14685e-08, global = -4.14625e-08, cumulative = -4.14625e-08
ExecutionTime = 123.28 s  ClockTime = 138 s

Courant Number mean: 1.35477e-05 max: 0.221112 velocity magnitude: 1.72744
Time = 0.003

MULES: Solving for alpha1
Liquid phase volume fraction = 0.00275424  Min(alpha1) = -9.81737e-31  Max(alpha1) = 1
MULES: Solving for alpha1
Liquid phase volume fraction = 0.00275426  Min(alpha1) = -1.50036e-30  Max(alpha1) = 1
GPU: 697 iters: 5.76206 s: 107.927 GB/s
SGPUPCG:  Solving for pd, Initial residual = 0.00747992, Final residual = 0.000373168, No Iterations 697
GPU: 660 iters: 5.45131 s: 108.024 GB/s
SGPUPCG:  Solving for pd, Initial residual = 0.00520929, Final residual = 0.00025964, No Iterations 660
GPU: 934 iters: 7.71977 s: 107.949 GB/s
SGPUPCG:  Solving for pd, Initial residual = 0.0051388, Final residual = 9.79618e-08, No Iterations 934
time step continuity errors : sum local = 2.25759e-08, global = -2.25707e-08, cumulative = -6.40332e-08
ExecutionTime = 162.53 s  ClockTime = 177 s

Courant Number mean: 1.63363e-05 max: 0.133579 velocity magnitude: 1.04358
Time = 0.004

MULES: Solving for alpha1
Liquid phase volume fraction = 0.00275427  Min(alpha1) = -2.8879e-30  Max(alpha1) = 1
MULES: Solving for alpha1
Liquid phase volume fraction = 0.00275428  Min(alpha1) = -4.11055e-30  Max(alpha1) = 1
GPU: 696 iters: 5.74487 s: 108.095 GB/s
SGPUPCG:  Solving for pd, Initial residual = 0.00849463, Final residual = 0.000423724, No Iterations 696
GPU: 682 iters: 5.62804 s: 108.119 GB/s
SGPUPCG:  Solving for pd, Initial residual = 0.00720779, Final residual = 0.000351227, No Iterations 682
GPU: 961 iters: 7.94183 s: 107.964 GB/s
SGPUPCG:  Solving for pd, Initial residual = 0.006703, Final residual = 9.82612e-08, No Iterations 961
time step continuity errors : sum local = 1.06658e-08, global = -1.06609e-08, cumulative = -7.46941e-08
ExecutionTime = 202.25 s  ClockTime = 217 s

Courant Number mean: 2.02726e-05 max: 0.0760191 velocity magnitude: 0.593899
Time = 0.005

MULES: Solving for alpha1
Liquid phase volume fraction = 0.00275429  Min(alpha1) = -1.91737e-29  Max(alpha1) = 1
MULES: Solving for alpha1
Liquid phase volume fraction = 0.00275429  Min(alpha1) = -7.44163e-30  Max(alpha1) = 1
GPU: 695 iters: 5.73501 s: 108.125 GB/s
SGPUPCG:  Solving for pd, Initial residual = 0.00674639, Final residual = 0.000336969, No Iterations 695
GPU: 658 iters: 5.44269 s: 107.867 GB/s
SGPUPCG:  Solving for pd, Initial residual = 0.00592081, Final residual = 0.000290158, No Iterations 658
GPU: 950 iters: 7.82252 s: 108.356 GB/s
SGPUPCG:  Solving for pd, Initial residual = 0.00570809, Final residual = 9.76272e-08, No Iterations 950
time step continuity errors : sum local = 2.48162e-09, global = -2.47697e-09, cumulative = -7.71711e-08
ExecutionTime = 241.6 s  ClockTime = 257 s

Courant Number mean: 2.43622e-05 max: 0.0288585 velocity magnitude: 0.303104
Time = 0.006

MULES: Solving for alpha1
Liquid phase volume fraction = 0.00275429  Min(alpha1) = -2.11092e-29  Max(alpha1) = 1
MULES: Solving for alpha1
Liquid phase volume fraction = 0.00275429  Min(alpha1) = -1.93067e-29  Max(alpha1) = 1
GPU: 699 iters: 5.76488 s: 108.184 GB/s
SGPUPCG:  Solving for pd, Initial residual = 0.00746966, Final residual = 0.000364774, No Iterations 699
GPU: 675 iters: 5.5739 s: 108.049 GB/s
SGPUPCG:  Solving for pd, Initial residual = 0.00567031, Final residual = 0.000276852, No Iterations 675
GPU: 950 iters: 7.84495 s: 108.046 GB/s
SGPUPCG:  Solving for pd, Initial residual = 0.0055955, Final residual = 9.71352e-08, No Iterations 950
time step continuity errors : sum local = 3.5368e-11, global = 3.07381e-11, cumulative = -7.71403e-08
ExecutionTime = 281.14 s  ClockTime = 296 s

Courant Number mean: 2.92834e-05 max: 0.0329532 velocity magnitude: 0.257447
Time = 0.007

MULES: Solving for alpha1
Liquid phase volume fraction = 0.00275429  Min(alpha1) = -3.34294e-29  Max(alpha1) = 1
MULES: Solving for alpha1
Liquid phase volume fraction = 0.00275429  Min(alpha1) = -3.28845e-29  Max(alpha1) = 1
GPU: 702 iters: 5.7984 s: 108.02 GB/s
SGPUPCG:  Solving for pd, Initial residual = 0.00717915, Final residual = 0.000356357, No Iterations 702
GPU: 646 iters: 5.34037 s: 107.929 GB/s
SGPUPCG:  Solving for pd, Initial residual = 0.00461564, Final residual = 0.000228342, No Iterations 646
GPU: 869 iters: 7.19154 s: 107.814 GB/s
SGPUPCG:  Solving for pd, Initial residual = 0.00418944, Final residual = 9.8382e-08, No Iterations 869
time step continuity errors : sum local = 1.46742e-10, global = 1.4214e-10, cumulative = -7.69982e-08
ExecutionTime = 319.78 s  ClockTime = 335 s

Courant Number mean: 3.43699e-05 max: 0.00923244 velocity magnitude: 0.130396
Time = 0.008

MULES: Solving for alpha1
Liquid phase volume fraction = 0.00275429  Min(alpha1) = -7.71345e-29  Max(alpha1) = 1
MULES: Solving for alpha1
Liquid phase volume fraction = 0.00275429  Min(alpha1) = -7.01645e-29  Max(alpha1) = 1
GPU: 704 iters: 5.80856 s: 108.138 GB/s
SGPUPCG:  Solving for pd, Initial residual = 0.00759927, Final residual = 0.00037564, No Iterations 704
GPU: 306 iters: 2.53572 s: 107.67 GB/s
SGPUPCG:  Solving for pd, Initial residual = 0.0044854, Final residual = 0.000222589, No Iterations 306
GPU: 830 iters: 6.84947 s: 108.118 GB/s
SGPUPCG:  Solving for pd, Initial residual = 0.00419673, Final residual = 9.41736e-08, No Iterations 830
time step continuity errors : sum local = 1.57025e-10, global = 1.52649e-10, cumulative = -7.68455e-08
ExecutionTime = 355.47 s  ClockTime = 371 s

Courant Number mean: 3.94773e-05 max: 0.00904201 velocity magnitude: 0.140308
Time = 0.009

MULES: Solving for alpha1
Liquid phase volume fraction = 0.00275429  Min(alpha1) = -4.63829e-29  Max(alpha1) = 1
MULES: Solving for alpha1
Liquid phase volume fraction = 0.00275429  Min(alpha1) = -5.91474e-29  Max(alpha1) = 1
GPU: 707 iters: 5.83307 s: 108.143 GB/s
SGPUPCG:  Solving for pd, Initial residual = 0.00747589, Final residual = 0.000362232, No Iterations 707
GPU: 313 iters: 2.59658 s: 107.552 GB/s
SGPUPCG:  Solving for pd, Initial residual = 0.00468086, Final residual = 0.000232874, No Iterations 313
GPU: 835 iters: 6.90879 s: 107.835 GB/s
SGPUPCG:  Solving for pd, Initial residual = 0.00415751, Final residual = 9.97623e-08, No Iterations 835
time step continuity errors : sum local = 6.55527e-12, global = 1.93219e-12, cumulative = -7.68436e-08
ExecutionTime = 391.15 s  ClockTime = 407 s

Courant Number mean: 4.4594e-05 max: 0.00972269 velocity magnitude: 0.149313
Time = 0.01

MULES: Solving for alpha1
Liquid phase volume fraction = 0.00275429  Min(alpha1) = -2.69969e-29  Max(alpha1) = 1
MULES: Solving for alpha1
Liquid phase volume fraction = 0.00275429  Min(alpha1) = -3.71607e-29  Max(alpha1) = 1
GPU: 707 iters: 5.83416 s: 108.123 GB/s
SGPUPCG:  Solving for pd, Initial residual = 0.00809325, Final residual = 0.00039159, No Iterations 707
GPU: 302 iters: 2.51573 s: 107.107 GB/s
SGPUPCG:  Solving for pd, Initial residual = 0.00466409, Final residual = 0.000231134, No Iterations 302
GPU: 830 iters: 6.87909 s: 107.652 GB/s
SGPUPCG:  Solving for pd, Initial residual = 0.00432565, Final residual = 9.8016e-08, No Iterations 830
time step continuity errors : sum local = 4.61856e-11, global = -4.16688e-11, cumulative = -7.68853e-08
ExecutionTime = 426.81 s  ClockTime = 443 s

End

Finalising parallel run
