 Data for JOB [40182,1] offset 0

 ========================   JOB MAP   ========================

 Data for node: ivb124	Num slots: 6	Max slots: 0	Num procs: 6
 	Process OMPI jobid: [40182,1] App: 0 Process rank: 0
 	Process OMPI jobid: [40182,1] App: 0 Process rank: 1
 	Process OMPI jobid: [40182,1] App: 0 Process rank: 2
 	Process OMPI jobid: [40182,1] App: 0 Process rank: 3
 	Process OMPI jobid: [40182,1] App: 0 Process rank: 4
 	Process OMPI jobid: [40182,1] App: 0 Process rank: 5

 =============================================================
[ivb124:30676] MCW rank 3 bound to socket 0[core 3[hwt 0]]: [./././B/./././././.][./././././././././.]
[ivb124:30676] MCW rank 4 bound to socket 0[core 4[hwt 0]]: [././././B/././././.][./././././././././.]
[ivb124:30676] MCW rank 5 bound to socket 0[core 5[hwt 0]]: [./././././B/./././.][./././././././././.]
[ivb124:30676] MCW rank 0 bound to socket 0[core 0[hwt 0]]: [B/././././././././.][./././././././././.]
[ivb124:30676] MCW rank 1 bound to socket 0[core 1[hwt 0]]: [./B/./././././././.][./././././././././.]
[ivb124:30676] MCW rank 2 bound to socket 0[core 2[hwt 0]]: [././B/././././././.][./././././././././.]
0
1
2
3
4
5
/*---------------------------------------------------------------------------*\
| =========                 |                                                 |
| \\      /  F ield         | foam-extend: Open Source CFD                    |
|  \\    /   O peration     | Version:     3.1                                |
|   \\  /    A nd           | Web:         http://www.extend-project.de       |
|    \\/     M anipulation  |                                                 |
\*---------------------------------------------------------------------------*/
Build    : 3.1-e2da948002a2
Exec     : pimpleDyMFoam -parallel
Date     : May 28 2016
Time     : 04:07:20
Host     : ivb124
PID      : 30721
CtrlDict : /home-2/vplatonov/foam/foam-extend-3.1/etc/controlDict
Case     : /home/vplatonov/tests/3D-mesh1-of3.1
nProcs   : 6
Slaves : 
5
(
ivb124.30720
ivb124.30742
ivb124.30737
ivb124.30725
ivb124.30731
)

Pstream initialized with:
    floatTransfer     : 0
    nProcsSimpleSum   : 0
    commsType         : blocking
SigFpe   : Enabling floating point exception trapping (FOAM_SIGFPE).

// * * * * * * * * * * * * * * * * * * * * * * * * * * * * * * * * * * * * * //
Create time

Create dynamic mesh for time = 0

Selecting dynamicFvMesh dynamicMotionSolverFvMesh
Selecting motion solver: displacementLaplacian
Selecting motion diffusion: quadratic
Selecting motion diffusion: inverseDistance
Reading field p

Reading field U

Reading/calculating face flux field phi

Selecting incompressible transport model Newtonian
Selecting turbulence model type LESModel
Selecting LES turbulence model oneEqEddy
oneEqEddyCoeffs
{
    ce              1.048;
    ck              0.094;
}

Reading field rAU if present


Starting time loop

Courant Number mean: 0 max: 0.0007592825 velocity magnitude: 0.4779
Reading old state
Before setting displacements
GAMGPCG:  Solving for cellDisplacementx, Initial residual = 0, Final residual = 0, No Iterations 0
GAMGPCG:  Solving for cellDisplacementy, Initial residual = 0, Final residual = 0, No Iterations 0
GAMGPCG:  Solving for cellDisplacementz, Initial residual = 0, Final residual = 0, No Iterations 0
Time = 5e-06

GAMGPCG:  Solving for cellDisplacementx, Initial residual = 0, Final residual = 0, No Iterations 0
GAMGPCG:  Solving for cellDisplacementy, Initial residual = 0, Final residual = 0, No Iterations 0
GAMGPCG:  Solving for cellDisplacementz, Initial residual = 0, Final residual = 0, No Iterations 0
volume continuity errors : volume = 4.535015, max error = 0, sum local = 0, global = 0
smoothSolver:  Solving for Ux, Initial residual = 1, Final residual = 2.285051e-08, No Iterations 1
smoothSolver:  Solving for Uy, Initial residual = 1, Final residual = 2.172388e-08, No Iterations 1
smoothSolver:  Solving for Uz, Initial residual = 0.9999962, Final residual = 4.2334e-08, No Iterations 1
Created persistent data with name p
Computing AINV with droptol 0.02
GPU: 475 iters: 16.86837 s: 29.02035 GB/s
Total exec time 16.86837 Total comm time 1.245966
OGPUBICGS:  Solving for p, Initial residual = 1, Final residual = 0.009825689, No Iterations 475
Computing AINV with droptol 0.02
GPU: 167 iters: 6.240468 s: 27.57918 GB/s
Total exec time 23.10883 Total comm time 1.832832
OGPUBICGS:  Solving for p, Initial residual = 0.0004707728, Final residual = 9.904385e-06, No Iterations 167
time step continuity errors : sum local = 2.224097e-09, global = -1.338507e-09, cumulative = -1.338507e-09
Moving mesh time step continuity errors : sum local = 2.224097e-09, global = -1.338507e-09, cumulative = -2.677013e-09
GPU: 230 iters: 8.569692 s: 27.65952 GB/s
Total exec time 31.67853 Total comm time 2.641781
OGPUBICGS:  Solving for p, Initial residual = 0.0001104283, Final residual = 8.05084e-06, No Iterations 230
GPU: 503 iters: 18.70863 s: 27.70819 GB/s
Total exec time 50.38715 Total comm time 4.411255
OGPUBICGS:  Solving for p, Initial residual = 4.484438e-05, Final residual = 5.581804e-08, No Iterations 503
time step continuity errors : sum local = 1.255918e-11, global = -1.923736e-13, cumulative = -2.677206e-09
Moving mesh time step continuity errors : sum local = 1.255918e-11, global = -1.923736e-13, cumulative = -2.677398e-09
smoothSolver:  Solving for k, Initial residual = 1, Final residual = 1.260337e-11, No Iterations 2
ExecutionTime = 140.09 s  ClockTime = 142 s

Courant Number mean: 7.683027e-05 max: 0.002865036 velocity magnitude: 0.955081
yForce = -4.77484
Y= -7.371808e-12
Vy= -2.948721e-06
Time = 1e-05

GAMGPCG:  Solving for cellDisplacementx, Initial residual = 0, Final residual = 0, No Iterations 0
Total solver time is 0
Total solver time is 0
Total solver time is 1
GAMGPCG:  Solving for cellDisplacementy, Initial residual = 1, Final residual = 3.31004e-09, No Iterations 1
GAMGPCG:  Solving for cellDisplacementz, Initial residual = 0, Final residual = 0, No Iterations 0
volume continuity errors : volume = 4.535015, max error = 1.082289e-08, sum local = 6.209806e-15, global = 6.494846e-18
smoothSolver:  Solving for Ux, Initial residual = 0.997552, Final residual = 4.959857e-07, No Iterations 1
smoothSolver:  Solving for Uy, Initial residual = 0.3328211, Final residual = 1.44701e-06, No Iterations 1
smoothSolver:  Solving for Uz, Initial residual = 0.3332693, Final residual = 6.514285e-07, No Iterations 1
GPU: 509 iters: 18.8978 s: 27.75803 GB/s
Total exec time 69.28495 Total comm time 6.183266
OGPUBICGS:  Solving for p, Initial residual = 0.003643649, Final residual = 2.709412e-05, No Iterations 509
GPU: 152 iters: 5.676904 s: 27.59396 GB/s
Total exec time 74.96186 Total comm time 6.722415
OGPUBICGS:  Solving for p, Initial residual = 0.001387506, Final residual = 1.351869e-05, No Iterations 152
time step continuity errors : sum local = 1.014236e-09, global = 4.719219e-10, cumulative = -2.205476e-09
Moving mesh time step continuity errors : sum local = 1.014236e-09, global = 4.719219e-10, cumulative = -1.733554e-09
GPU: 155 iters: 5.793025 s: 27.57455 GB/s
Total exec time 80.75488 Total comm time 7.27568
OGPUBICGS:  Solving for p, Initial residual = 0.0003123712, Final residual = 7.195313e-06, No Iterations 155
GPU: 559 iters: 20.80705 s: 27.68748 GB/s
Total exec time 101.5619 Total comm time 9.250806
OGPUBICGS:  Solving for p, Initial residual = 0.0001154495, Final residual = 9.885181e-08, No Iterations 559
time step continuity errors : sum local = 7.411806e-12, global = -2.897862e-13, cumulative = -1.733844e-09
Moving mesh time step continuity errors : sum local = 7.411806e-12, global = -2.897862e-13, cumulative = -1.734134e-09
smoothSolver:  Solving for k, Initial residual = 0.008780383, Final residual = 4.659091e-09, No Iterations 1
ExecutionTime = 222.86 s  ClockTime = 225 s

Courant Number mean: 7.68325e-05 max: 0.002856914 velocity magnitude: 0.9523736
yForce = 8.053447
Y= -9.681799e-12
Vy= 2.024721e-06
Time = 1.5e-05

GAMGPCG:  Solving for cellDisplacementx, Initial residual = 0, Final residual = 0, No Iterations 0
Total solver time is 0
Total solver time is 0
Total solver time is 1
GAMGPCG:  Solving for cellDisplacementy, Initial residual = 0.2799868, Final residual = 1.728636e-09, No Iterations 1
GAMGPCG:  Solving for cellDisplacementz, Initial residual = 0, Final residual = 0, No Iterations 0
volume continuity errors : volume = 4.535015, max error = 1.013086e-08, sum local = 6.99594e-15, global = -1.719783e-18
smoothSolver:  Solving for Ux, Initial residual = 0.9921604, Final residual = 4.934695e-07, No Iterations 1
smoothSolver:  Solving for Uy, Initial residual = 0.1847123, Final residual = 8.686247e-07, No Iterations 1
smoothSolver:  Solving for Uz, Initial residual = 0.6149615, Final residual = 1.234068e-06, No Iterations 1
GPU: 451 iters: 16.77442 s: 27.70838 GB/s
Total exec time 118.3364 Total comm time 10.84184
OGPUBICGS:  Solving for p, Initial residual = 0.002799813, Final residual = 2.790628e-05, No Iterations 451
GPU: 375 iters: 13.93516 s: 27.73329 GB/s
Total exec time 132.2715 Total comm time 12.14806
OGPUBICGS:  Solving for p, Initial residual = 0.04912163, Final residual = 0.0004910657, No Iterations 375
time step continuity errors : sum local = 3.466573e-10, global = -1.438478e-10, cumulative = -1.877981e-09
Moving mesh time step continuity errors : sum local = 3.466573e-10, global = -1.438478e-10, cumulative = -2.021829e-09
GPU: 417 iters: 15.52515 s: 27.68104 GB/s
Total exec time 147.7967 Total comm time 13.6126
OGPUBICGS:  Solving for p, Initial residual = 0.01966463, Final residual = 0.0001784766, No Iterations 417
GPU: 566 iters: 21.02104 s: 27.7488 GB/s
Total exec time 168.8177 Total comm time 15.57613
OGPUBICGS:  Solving for p, Initial residual = 0.007332346, Final residual = 9.797249e-08, No Iterations 566
time step continuity errors : sum local = 3.231689e-14, global = 8.145105e-15, cumulative = -2.021821e-09
Moving mesh time step continuity errors : sum local = 3.231689e-14, global = 8.145105e-15, cumulative = -2.021813e-09
smoothSolver:  Solving for k, Initial residual = 0.003835141, Final residual = 2.146406e-09, No Iterations 1
ExecutionTime = 322.44 s  ClockTime = 326 s

Courant Number mean: 7.683292e-05 max: 0.002858867 velocity magnitude: 0.9530246
yForce = -0.5277023
Y= -3.729148e-13
Vy= 1.698833e-06
Time = 2e-05

GAMGPCG:  Solving for cellDisplacementx, Initial residual = 0, Final residual = 0, No Iterations 0
Total solver time is 0
Total solver time is 0
Total solver time is 1
GAMGPCG:  Solving for cellDisplacementy, Initial residual = 1, Final residual = 3.371728e-09, No Iterations 1
GAMGPCG:  Solving for cellDisplacementz, Initial residual = 0, Final residual = 0, No Iterations 0
volume continuity errors : volume = 4.535015, max error = 9.344491e-09, sum local = 6.986149e-15, global = -5.399647e-18
smoothSolver:  Solving for Ux, Initial residual = 0.05109313, Final residual = 5.119438e-08, No Iterations 1
smoothSolver:  Solving for Uy, Initial residual = 0.01326892, Final residual = 9.307146e-08, No Iterations 1
smoothSolver:  Solving for Uz, Initial residual = 0.9320792, Final residual = 9.128664e-07, No Iterations 1
GPU: 43 iters: 1.635762 s: 27.09134 GB/s
Total exec time 170.4535 Total comm time 15.72975
OGPUBICGS:  Solving for p, Initial residual = 0.2267339, Final residual = 0.002174761, No Iterations 43
GPU: 114 iters: 4.271012 s: 27.50782 GB/s
Total exec time 174.7245 Total comm time 16.13347
OGPUBICGS:  Solving for p, Initial residual = 0.01244677, Final residual = 0.0001149655, No Iterations 114
time step continuity errors : sum local = 3.098003e-11, global = 1.142283e-12, cumulative = -2.020671e-09
Moving mesh time step continuity errors : sum local = 3.098003e-11, global = 1.142283e-12, cumulative = -2.019528e-09
GPU: 202 iters: 7.529083 s: 27.64976 GB/s
Total exec time 182.2536 Total comm time 16.85136
OGPUBICGS:  Solving for p, Initial residual = 0.004255611, Final residual = 4.105326e-05, No Iterations 202
GPU: 563 iters: 20.94973 s: 27.69569 GB/s
Total exec time 203.2033 Total comm time 18.83665
OGPUBICGS:  Solving for p, Initial residual = 0.001818172, Final residual = 8.037453e-08, No Iterations 563
time step continuity errors : sum local = 2.157545e-14, global = -5.734249e-16, cumulative = -2.019529e-09
Moving mesh time step continuity errors : sum local = 2.157545e-14, global = -5.734249e-16, cumulative = -2.01953e-09
smoothSolver:  Solving for k, Initial residual = 0.002273157, Final residual = 1.3534e-09, No Iterations 1
ExecutionTime = 388.86 s  ClockTime = 392 s

Courant Number mean: 7.683349e-05 max: 0.002856745 velocity magnitude: 0.9523171
yForce = -1.468052
Y= 5.85474e-12
Vy= 7.922294e-07
Time = 2.5e-05

GAMGPCG:  Solving for cellDisplacementx, Initial residual = 0, Final residual = 0, No Iterations 0
Total solver time is 0
Total solver time is 0
Total solver time is 1
GAMGPCG:  Solving for cellDisplacementy, Initial residual = 0.872352, Final residual = 3.375598e-09, No Iterations 1
GAMGPCG:  Solving for cellDisplacementz, Initial residual = 0, Final residual = 0, No Iterations 0
volume continuity errors : volume = 4.535015, max error = 9.488683e-09, sum local = 7.022502e-15, global = 2.892527e-18
smoothSolver:  Solving for Ux, Initial residual = 0.02716142, Final residual = 1.807596e-08, No Iterations 1
smoothSolver:  Solving for Uy, Initial residual = 0.004600531, Final residual = 3.187685e-08, No Iterations 1
smoothSolver:  Solving for Uz, Initial residual = 0.7420531, Final residual = 7.040975e-07, No Iterations 1
GPU: 8 iters: 0.3319067 s: 24.84025 GB/s
Total exec time 203.5352 Total comm time 18.86425
OGPUBICGS:  Solving for p, Initial residual = 0.1534278, Final residual = 0.001471598, No Iterations 8
GPU: 148 iters: 5.535761 s: 27.55284 GB/s
Total exec time 209.071 Total comm time 19.38535
OGPUBICGS:  Solving for p, Initial residual = 0.003712945, Final residual = 3.638913e-05, No Iterations 148
time step continuity errors : sum local = 8.648298e-12, global = -2.192822e-13, cumulative = -2.019749e-09
Moving mesh time step continuity errors : sum local = 8.648298e-12, global = -2.192822e-13, cumulative = -2.019968e-09
GPU: 159 iters: 5.931804 s: 27.62437 GB/s
Total exec time 215.0028 Total comm time 19.94272
OGPUBICGS:  Solving for p, Initial residual = 0.0009384393, Final residual = 9.671097e-06, No Iterations 159
GPU: 517 iters: 19.19001 s: 27.76499 GB/s
Total exec time 234.1928 Total comm time 21.73834
OGPUBICGS:  Solving for p, Initial residual = 0.0003287102, Final residual = 9.196841e-08, No Iterations 517
time step continuity errors : sum local = 2.181598e-14, global = 1.501778e-16, cumulative = -2.019968e-09
Moving mesh time step continuity errors : sum local = 2.181598e-14, global = 1.501778e-16, cumulative = -2.019968e-09
smoothSolver:  Solving for k, Initial residual = 0.00155481, Final residual = 9.811817e-10, No Iterations 1
ExecutionTime = 451.6 s  ClockTime = 455 s

Courant Number mean: 7.683361e-05 max: 0.002854615 velocity magnitude: 0.9516072
yForce = 1.143666
Y= 1.158157e-11
Vy= 1.498504e-06
Time = 3e-05

GAMGPCG:  Solving for cellDisplacementx, Initial residual = 0, Final residual = 0, No Iterations 0
Total solver time is 0
Total solver time is 0
Total solver time is 1
GAMGPCG:  Solving for cellDisplacementy, Initial residual = 0.5372694, Final residual = 1.792329e-09, No Iterations 1
GAMGPCG:  Solving for cellDisplacementz, Initial residual = 0, Final residual = 0, No Iterations 0
volume continuity errors : volume = 4.535015, max error = 9.060336e-09, sum local = 7.040135e-15, global = 1.426055e-18
smoothSolver:  Solving for Ux, Initial residual = 0.01762016, Final residual = 8.823504e-09, No Iterations 1
smoothSolver:  Solving for Uy, Initial residual = 0.001242303, Final residual = 1.621969e-08, No Iterations 1
smoothSolver:  Solving for Uz, Initial residual = 0.2661364, Final residual = 1.721652e-06, No Iterations 1
GPU: 2 iters: 0.1117813 s: 18.43923 GB/s
Total exec time 234.3045 Total comm time 21.74951
OGPUBICGS:  Solving for p, Initial residual = 0.1088436, Final residual = 0.0007036352, No Iterations 2
GPU: 43 iters: 1.637771 s: 27.0581 GB/s
Total exec time 235.9423 Total comm time 21.90758
OGPUBICGS:  Solving for p, Initial residual = 0.001329695, Final residual = 1.300836e-05, No Iterations 43
time step continuity errors : sum local = 2.790609e-12, global = 2.694195e-15, cumulative = -2.019965e-09
Moving mesh time step continuity errors : sum local = 2.790609e-12, global = 2.694195e-15, cumulative = -2.019962e-09
GPU: 39 iters: 1.483675 s: 27.08993 GB/s
Total exec time 237.426 Total comm time 22.04572
OGPUBICGS:  Solving for p, Initial residual = 0.0002644077, Final residual = 8.726932e-06, No Iterations 39
GPU: 425 iters: 15.85074 s: 27.63259 GB/s
Total exec time 253.2767 Total comm time 23.54242
OGPUBICGS:  Solving for p, Initial residual = 0.0001025937, Final residual = 8.639252e-08, No Iterations 425
time step continuity errors : sum local = 1.852624e-14, global = -1.832932e-14, cumulative = -2.019981e-09
Moving mesh time step continuity errors : sum local = 1.852624e-14, global = -1.832932e-14, cumulative = -2.019999e-09
smoothSolver:  Solving for k, Initial residual = 0.00115692, Final residual = 7.628949e-10, No Iterations 1
ExecutionTime = 501.81 s  ClockTime = 506 s

Courant Number mean: 7.68337e-05 max: 0.002852246 velocity magnitude: 0.9508175
yForce = -0.3369207
Y= 1.855392e-11
Vy= 1.290435e-06
Time = 3.5e-05

GAMGPCG:  Solving for cellDisplacementx, Initial residual = 0, Final residual = 0, No Iterations 0
Total solver time is 0
Total solver time is 0
Total solver time is 1
GAMGPCG:  Solving for cellDisplacementy, Initial residual = 0.4486778, Final residual = 1.475848e-09, No Iterations 1
GAMGPCG:  Solving for cellDisplacementz, Initial residual = 0, Final residual = 0, No Iterations 0
volume continuity errors : volume = 4.535015, max error = 9.549055e-09, sum local = 7.048315e-15, global = -2.600703e-19
smoothSolver:  Solving for Ux, Initial residual = 0.01353027, Final residual = 6.935344e-09, No Iterations 1
smoothSolver:  Solving for Uy, Initial residual = 0.0009609382, Final residual = 1.213207e-08, No Iterations 1
smoothSolver:  Solving for Uz, Initial residual = 0.5971222, Final residual = 4.313412e-06, No Iterations 1
GPU: 1 iters: 0.07293546 s: 14.13004 GB/s
Total exec time 253.3497 Total comm time 23.54793
OGPUBICGS:  Solving for p, Initial residual = 0.09113987, Final residual = 0.0003776007, No Iterations 1
GPU: 22 iters: 0.8492158 s: 26.69849 GB/s
Total exec time 254.1989 Total comm time 23.62574
OGPUBICGS:  Solving for p, Initial residual = 0.000559653, Final residual = 9.359382e-06, No Iterations 22
time step continuity errors : sum local = 1.843692e-12, global = -4.289317e-14, cumulative = -2.020042e-09
Moving mesh time step continuity errors : sum local = 1.843692e-12, global = -4.289317e-14, cumulative = -2.020085e-09
GPU: 7 iters: 0.2950349 s: 24.45157 GB/s
Total exec time 254.4939 Total comm time 23.65139
OGPUBICGS:  Solving for p, Initial residual = 8.232475e-05, Final residual = 9.616415e-06, No Iterations 7
GPU: 458 iters: 17.01261 s: 27.74448 GB/s
Total exec time 271.5065 Total comm time 25.25686
OGPUBICGS:  Solving for p, Initial residual = 2.923769e-05, Final residual = 9.74967e-08, No Iterations 458
time step continuity errors : sum local = 1.920302e-14, global = -1.099059e-14, cumulative = -2.020096e-09
Moving mesh time step continuity errors : sum local = 1.920302e-14, global = -1.099059e-14, cumulative = -2.020107e-09
smoothSolver:  Solving for k, Initial residual = 0.0009097465, Final residual = 6.33083e-10, No Iterations 1
ExecutionTime = 551.88 s  ClockTime = 556 s

Courant Number mean: 7.683375e-05 max: 0.002849502 velocity magnitude: 0.9499026
yForce = -0.1435637
Y= 2.478444e-11
Vy= 1.201775e-06
Time = 4e-05

GAMGPCG:  Solving for cellDisplacementx, Initial residual = 0, Final residual = 0, No Iterations 0
Total solver time is 0
Total solver time is 0
Total solver time is 1
GAMGPCG:  Solving for cellDisplacementy, Initial residual = 0.3182469, Final residual = 1.048008e-09, No Iterations 1
GAMGPCG:  Solving for cellDisplacementz, Initial residual = 0, Final residual = 0, No Iterations 0
volume continuity errors : volume = 4.535015, max error = 9.121534e-09, sum local = 7.05688e-15, global = -1.264827e-18
smoothSolver:  Solving for Ux, Initial residual = 0.0109574, Final residual = 5.674863e-09, No Iterations 1
smoothSolver:  Solving for Uy, Initial residual = 0.0008054505, Final residual = 9.758453e-09, No Iterations 1
smoothSolver:  Solving for Uz, Initial residual = 0.3740546, Final residual = 3.617801e-06, No Iterations 1
GPU: 1 iters: 0.07566397 s: 13.6205 GB/s
Total exec time 271.5822 Total comm time 25.26399
OGPUBICGS:  Solving for p, Initial residual = 0.07496867, Final residual = 0.0001464834, No Iterations 1
GPU: 8 iters: 0.3352218 s: 24.5946 GB/s
Total exec time 271.9174 Total comm time 25.29585
OGPUBICGS:  Solving for p, Initial residual = 0.0002943889, Final residual = 9.775841e-06, No Iterations 8
time step continuity errors : sum local = 1.789087e-12, global = 4.945074e-15, cumulative = -2.020102e-09
Moving mesh time step continuity errors : sum local = 1.789087e-12, global = 4.945074e-15, cumulative = -2.020097e-09
GPU: 2 iters: 0.1118719 s: 18.42431 GB/s
Total exec time 272.0293 Total comm time 25.30676
OGPUBICGS:  Solving for p, Initial residual = 3.593718e-05, Final residual = 9.129309e-06, No Iterations 2
GPU: 256 iters: 9.559957 s: 27.59727 GB/s
Total exec time 281.5892 Total comm time 26.22107
OGPUBICGS:  Solving for p, Initial residual = 1.524328e-05, Final residual = 9.920716e-08, No Iterations 256
time step continuity errors : sum local = 1.815506e-14, global = 1.56714e-14, cumulative = -2.020081e-09
Moving mesh time step continuity errors : sum local = 1.815506e-14, global = 1.56714e-14, cumulative = -2.020066e-09
smoothSolver:  Solving for k, Initial residual = 0.0007436954, Final residual = 5.39743e-10, No Iterations 1
ExecutionTime = 593.25 s  ClockTime = 598 s

Courant Number mean: 7.683377e-05 max: 0.002846382 velocity magnitude: 0.9488625
yForce = 0.1828561
Y= 3.107562e-11
Vy= 1.314696e-06
Time = 4.5e-05

GAMGPCG:  Solving for cellDisplacementx, Initial residual = 0, Final residual = 0, No Iterations 0
Total solver time is 0
Total solver time is 0
Total solver time is 1
GAMGPCG:  Solving for cellDisplacementy, Initial residual = 0.2665514, Final residual = 8.666491e-10, No Iterations 1
GAMGPCG:  Solving for cellDisplacementz, Initial residual = 0, Final residual = 0, No Iterations 0
volume continuity errors : volume = 4.535015, max error = 9.427807e-09, sum local = 7.063333e-15, global = 1.351884e-18
smoothSolver:  Solving for Ux, Initial residual = 0.009364159, Final residual = 4.835021e-09, No Iterations 1
smoothSolver:  Solving for Uy, Initial residual = 0.0006802386, Final residual = 8.068622e-09, No Iterations 1
smoothSolver:  Solving for Uz, Initial residual = 0.4979027, Final residual = 2.410992e-06, No Iterations 1
GPU: 1 iters: 0.07366499 s: 13.9901 GB/s
Total exec time 281.6629 Total comm time 26.22722
OGPUBICGS:  Solving for p, Initial residual = 0.06276778, Final residual = 0.0001103016, No Iterations 1
GPU: 7 iters: 0.2963183 s: 24.34567 GB/s
Total exec time 281.9592 Total comm time 26.25456
OGPUBICGS:  Solving for p, Initial residual = 0.0002189824, Final residual = 9.343591e-06, No Iterations 7
time step continuity errors : sum local = 1.602469e-12, global = 4.877848e-14, cumulative = -2.020017e-09
Moving mesh time step continuity errors : sum local = 1.602469e-12, global = 4.877848e-14, cumulative = -2.019968e-09
GPU: 1 iters: 0.07470794 s: 13.7948 GB/s
Total exec time 282.0339 Total comm time 26.26115
OGPUBICGS:  Solving for p, Initial residual = 2.337164e-05, Final residual = 9.475757e-06, No Iterations 1
GPU: 409 iters: 15.21992 s: 27.69446 GB/s
Total exec time 297.2539 Total comm time 27.70626
OGPUBICGS:  Solving for p, Initial residual = 1.1503e-05, Final residual = 9.578289e-08, No Iterations 409
time step continuity errors : sum local = 1.642666e-14, global = 3.593224e-15, cumulative = -2.019965e-09
Moving mesh time step continuity errors : sum local = 1.642666e-14, global = 3.593224e-15, cumulative = -2.019961e-09
smoothSolver:  Solving for k, Initial residual = 0.0006255988, Final residual = 4.717821e-10, No Iterations 1
ExecutionTime = 640.72 s  ClockTime = 645 s

Courant Number mean: 7.683376e-05 max: 0.002842881 velocity magnitude: 0.9482449
yForce = -0.07139214
Y= 3.753888e-11
Vy= 1.270606e-06
Time = 5e-05

GAMGPCG:  Solving for cellDisplacementx, Initial residual = 0, Final residual = 0, No Iterations 0
Total solver time is 0
Total solver time is 0
Total solver time is 1
GAMGPCG:  Solving for cellDisplacementy, Initial residual = 0.231553, Final residual = 3.283115e-10, No Iterations 1
GAMGPCG:  Solving for cellDisplacementz, Initial residual = 0, Final residual = 0, No Iterations 0
volume continuity errors : volume = 4.535015, max error = 1.189192e-08, sum local = 7.039257e-15, global = -1.449263e-18
smoothSolver:  Solving for Ux, Initial residual = 0.00828236, Final residual = 4.219067e-09, No Iterations 1
smoothSolver:  Solving for Uy, Initial residual = 0.0005950124, Final residual = 6.843361e-09, No Iterations 1
smoothSolver:  Solving for Uz, Initial residual = 0.310802, Final residual = 7.545205e-07, No Iterations 1
GPU: 1 iters: 0.0746944 s: 13.7973 GB/s
Total exec time 297.3285 Total comm time 27.71136
OGPUBICGS:  Solving for p, Initial residual = 0.05636484, Final residual = 8.505594e-05, No Iterations 1
GPU: 5 iters: 0.2219096 s: 23.22074 GB/s
Total exec time 297.5505 Total comm time 27.73106
OGPUBICGS:  Solving for p, Initial residual = 0.0001703444, Final residual = 8.952974e-06, No Iterations 5
time step continuity errors : sum local = 1.448758e-12, global = -2.14255e-14, cumulative = -2.019982e-09
Moving mesh time step continuity errors : sum local = 1.448758e-12, global = -2.14255e-14, cumulative = -2.020004e-09
GPU: 0 iters: 0.03681683 s: 0 GB/s
Total exec time 297.5873 Total comm time 27.73452
OGPUBICGS:  Solving for p, Initial residual = 1.872535e-05, Final residual = 9.451982e-06, No Iterations 0
GPU: 274 iters: 10.21244 s: 27.65052 GB/s
Total exec time 307.7997 Total comm time 28.69533
OGPUBICGS:  Solving for p, Initial residual = 1.047089e-05, Final residual = 9.91193e-08, No Iterations 274
time step continuity errors : sum local = 1.603895e-14, global = -1.601922e-14, cumulative = -2.02002e-09
Moving mesh time step continuity errors : sum local = 1.603895e-14, global = -1.601922e-14, cumulative = -2.020036e-09
smoothSolver:  Solving for k, Initial residual = 0.0005378855, Final residual = 4.204754e-10, No Iterations 1
ExecutionTime = 683.66 s  ClockTime = 689 s

yForce = -0.006374889
Y= 4.388206e-11
Vy= 1.266667e-06
End

Finalising parallel run
