 Data for JOB [25216,1] offset 0

 ========================   JOB MAP   ========================

 Data for node: ivb194	Num slots: 10	Max slots: 0	Num procs: 10
 	Process OMPI jobid: [25216,1] App: 0 Process rank: 0
 	Process OMPI jobid: [25216,1] App: 0 Process rank: 1
 	Process OMPI jobid: [25216,1] App: 0 Process rank: 2
 	Process OMPI jobid: [25216,1] App: 0 Process rank: 3
 	Process OMPI jobid: [25216,1] App: 0 Process rank: 4
 	Process OMPI jobid: [25216,1] App: 0 Process rank: 5
 	Process OMPI jobid: [25216,1] App: 0 Process rank: 6
 	Process OMPI jobid: [25216,1] App: 0 Process rank: 7
 	Process OMPI jobid: [25216,1] App: 0 Process rank: 8
 	Process OMPI jobid: [25216,1] App: 0 Process rank: 9

 =============================================================
[ivb194:00775] MCW rank 2 bound to socket 0[core 2[hwt 0]]: [././B/././././././.][./././././././././.]
[ivb194:00775] MCW rank 3 bound to socket 0[core 3[hwt 0]]: [./././B/./././././.][./././././././././.]
[ivb194:00775] MCW rank 4 bound to socket 0[core 4[hwt 0]]: [././././B/././././.][./././././././././.]
[ivb194:00775] MCW rank 5 bound to socket 0[core 5[hwt 0]]: [./././././B/./././.][./././././././././.]
[ivb194:00775] MCW rank 6 bound to socket 0[core 6[hwt 0]]: [././././././B/././.][./././././././././.]
[ivb194:00775] MCW rank 7 bound to socket 0[core 7[hwt 0]]: [./././././././B/./.][./././././././././.]
[ivb194:00775] MCW rank 8 bound to socket 0[core 8[hwt 0]]: [././././././././B/.][./././././././././.]
[ivb194:00775] MCW rank 9 bound to socket 0[core 9[hwt 0]]: [./././././././././B][./././././././././.]
[ivb194:00775] MCW rank 0 bound to socket 0[core 0[hwt 0]]: [B/././././././././.][./././././././././.]
[ivb194:00775] MCW rank 1 bound to socket 0[core 1[hwt 0]]: [./B/./././././././.][./././././././././.]
/*---------------------------------------------------------------------------*\
| =========                 |                                                 |
| \\      /  F ield         | foam-extend: Open Source CFD                    |
|  \\    /   O peration     | Version:     3.1                                |
|   \\  /    A nd           | Web:         http://www.extend-project.de       |
|    \\/     M anipulation  |                                                 |
\*---------------------------------------------------------------------------*/
Build    : 3.1-e2da948002a2
Exec     : interFoam -parallel
Date     : May 26 2016
Time     : 08:59:32
Host     : ivb194
PID      : 777
CtrlDict : /home-2/vplatonov/foam/foam-extend-3.1/etc/controlDict
Case     : /home/vplatonov/tests/rt12mln
nProcs   : 10
Slaves : 
9
(
ivb194.778
ivb194.779
ivb194.780
ivb194.781
ivb194.782
ivb194.783
ivb194.784
ivb194.785
ivb194.786
)

Pstream initialized with:
    floatTransfer     : 0
    nProcsSimpleSum   : 0
    commsType         : blocking
SigFpe   : Enabling floating point exception trapping (FOAM_SIGFPE).

// * * * * * * * * * * * * * * * * * * * * * * * * * * * * * * * * * * * * * //
Create time

Create mesh for time = 0


Reading g
Reading field pd

Reading field alpha1

Reading field U

Reading/calculating face flux field phi

Reading transportProperties

Selecting incompressible transport model Newtonian
Selecting incompressible transport model Newtonian
Calculating field g.h

Selecting turbulence model type laminar
time step continuity errors : sum local = 0, global = 0, cumulative = 0
DICPCG:  Solving for pcorr, Initial residual = 0, Final residual = 0, No Iterations 0
time step continuity errors : sum local = 0, global = 0, cumulative = 0
Courant Number mean: 0 max: 0 velocity magnitude: 0

Starting time loop

Courant Number mean: 0 max: 0 velocity magnitude: 0
Time = 0.001

MULES: Solving for alpha1
Liquid phase volume fraction = 0.00275421  Min(alpha1) = 0  Max(alpha1) = 1
MULES: Solving for alpha1
Liquid phase volume fraction = 0.00275421  Min(alpha1) = 0  Max(alpha1) = 1
Total solver time is 0
DICPCG:  Solving for pd, Initial residual = 1, Final residual = 0.0470344, No Iterations 6
Total solver time is 20
DICPCG:  Solving for pd, Initial residual = 0.0284266, Final residual = 0.00135883, No Iterations 163
Total solver time is 109
DICPCG:  Solving for pd, Initial residual = 0.00791315, Final residual = 9.70778e-08, No Iterations 886
time step continuity errors : sum local = 7.2271e-12, global = 1.83608e-25, cumulative = 1.83608e-25
ExecutionTime = 158.96 s  ClockTime = 174 s

Courant Number mean: 4.86022e-06 max: 0.00215963 velocity magnitude: 0.0337442
Time = 0.002

MULES: Solving for alpha1
Liquid phase volume fraction = 0.00275421  Min(alpha1) = 0  Max(alpha1) = 1
MULES: Solving for alpha1
Liquid phase volume fraction = 0.00275421  Min(alpha1) = 0  Max(alpha1) = 1
Total solver time is 22
DICPCG:  Solving for pd, Initial residual = 0.00369324, Final residual = 0.000182871, No Iterations 182
Total solver time is 36
DICPCG:  Solving for pd, Initial residual = 0.00219651, Final residual = 0.00010795, No Iterations 298
Total solver time is 105
DICPCG:  Solving for pd, Initial residual = 0.0019701, Final residual = 9.98304e-08, No Iterations 853
time step continuity errors : sum local = 4.67962e-12, global = 3.10468e-25, cumulative = 4.94077e-25
ExecutionTime = 341.29 s  ClockTime = 357 s

Courant Number mean: 7.65882e-06 max: 0.00313379 velocity magnitude: 0.0489655
Time = 0.003

MULES: Solving for alpha1
Liquid phase volume fraction = 0.00275421  Min(alpha1) = -2.37763e-30  Max(alpha1) = 1
MULES: Solving for alpha1
Liquid phase volume fraction = 0.00275421  Min(alpha1) = -1.56398e-30  Max(alpha1) = 1
Total solver time is 40
DICPCG:  Solving for pd, Initial residual = 0.0042521, Final residual = 0.000207229, No Iterations 328
Total solver time is 39
DICPCG:  Solving for pd, Initial residual = 0.00314088, Final residual = 0.000151935, No Iterations 323
Total solver time is 97
DICPCG:  Solving for pd, Initial residual = 0.00265994, Final residual = 9.71649e-08, No Iterations 787
time step continuity errors : sum local = 4.55394e-12, global = 9.29126e-25, cumulative = 1.4232e-24
ExecutionTime = 536.84 s  ClockTime = 553 s

Courant Number mean: 1.35584e-05 max: 0.0048272 velocity magnitude: 0.075425
Time = 0.004

MULES: Solving for alpha1
Liquid phase volume fraction = 0.00275421  Min(alpha1) = -1.20113e-29  Max(alpha1) = 1
MULES: Solving for alpha1
Liquid phase volume fraction = 0.00275421  Min(alpha1) = -1.62324e-29  Max(alpha1) = 1
Total solver time is 39
DICPCG:  Solving for pd, Initial residual = 0.00344318, Final residual = 0.000166786, No Iterations 323
Total solver time is 41
DICPCG:  Solving for pd, Initial residual = 0.00326586, Final residual = 0.000156783, No Iterations 335
Total solver time is 104
DICPCG:  Solving for pd, Initial residual = 0.00246217, Final residual = 9.79876e-08, No Iterations 842
time step continuity errors : sum local = 4.57484e-12, global = 6.15334e-25, cumulative = 2.03854e-24
ExecutionTime = 740.22 s  ClockTime = 756 s

Courant Number mean: 1.92375e-05 max: 0.00597831 velocity magnitude: 0.0934111
Time = 0.005

MULES: Solving for alpha1
Liquid phase volume fraction = 0.00275421  Min(alpha1) = -3.65913e-30  Max(alpha1) = 1
MULES: Solving for alpha1
Liquid phase volume fraction = 0.00275421  Min(alpha1) = -6.09564e-30  Max(alpha1) = 1
Total solver time is 40
DICPCG:  Solving for pd, Initial residual = 0.00216614, Final residual = 0.000107376, No Iterations 331
Total solver time is 40
DICPCG:  Solving for pd, Initial residual = 0.00181882, Final residual = 9.0383e-05, No Iterations 330
Total solver time is 102
DICPCG:  Solving for pd, Initial residual = 0.00146474, Final residual = 9.88787e-08, No Iterations 834
time step continuity errors : sum local = 4.6074e-12, global = -2.855e-24, cumulative = -8.1646e-25
ExecutionTime = 942.48 s  ClockTime = 959 s

Courant Number mean: 2.4381e-05 max: 0.00683707 velocity magnitude: 0.106829
Time = 0.006

MULES: Solving for alpha1
Liquid phase volume fraction = 0.00275421  Min(alpha1) = -1.2755e-29  Max(alpha1) = 1
MULES: Solving for alpha1
Liquid phase volume fraction = 0.00275421  Min(alpha1) = -1.72386e-29  Max(alpha1) = 1
Total solver time is 41
DICPCG:  Solving for pd, Initial residual = 0.002264, Final residual = 0.000111791, No Iterations 335
Total solver time is 42
DICPCG:  Solving for pd, Initial residual = 0.00120929, Final residual = 5.88905e-05, No Iterations 343
Total solver time is 100
DICPCG:  Solving for pd, Initial residual = 0.000719561, Final residual = 9.74871e-08, No Iterations 813
time step continuity errors : sum local = 4.52836e-12, global = 3.14063e-24, cumulative = 2.32417e-24
ExecutionTime = 1144.2 s  ClockTime = 1161 s

Courant Number mean: 2.95003e-05 max: 0.00763958 velocity magnitude: 0.119369
Time = 0.007

MULES: Solving for alpha1
Liquid phase volume fraction = 0.00275421  Min(alpha1) = -2.29423e-29  Max(alpha1) = 1
MULES: Solving for alpha1
Liquid phase volume fraction = 0.00275421  Min(alpha1) = -3.0585e-29  Max(alpha1) = 1
Total solver time is 41
DICPCG:  Solving for pd, Initial residual = 0.00231588, Final residual = 0.000108785, No Iterations 334
Total solver time is 42
DICPCG:  Solving for pd, Initial residual = 0.00111464, Final residual = 5.56702e-05, No Iterations 346
Total solver time is 61
DICPCG:  Solving for pd, Initial residual = 0.000548682, Final residual = 9.79827e-08, No Iterations 499
time step continuity errors : sum local = 4.82964e-12, global = 5.27207e-25, cumulative = 2.85138e-24
ExecutionTime = 1307.95 s  ClockTime = 1325 s

Courant Number mean: 3.46248e-05 max: 0.0083469 velocity magnitude: 0.13042
Time = 0.008

MULES: Solving for alpha1
Liquid phase volume fraction = 0.00275421  Min(alpha1) = -6.21046e-29  Max(alpha1) = 1
MULES: Solving for alpha1
Liquid phase volume fraction = 0.00275421  Min(alpha1) = -5.40994e-29  Max(alpha1) = 1
Total solver time is 41
DICPCG:  Solving for pd, Initial residual = 0.0023541, Final residual = 0.000117456, No Iterations 333
Total solver time is 42
DICPCG:  Solving for pd, Initial residual = 0.00109498, Final residual = 5.30555e-05, No Iterations 347
Total solver time is 61
DICPCG:  Solving for pd, Initial residual = 0.000461111, Final residual = 9.79961e-08, No Iterations 500
time step continuity errors : sum local = 4.99626e-12, global = -1.02183e-23, cumulative = -7.36695e-24
ExecutionTime = 1471.37 s  ClockTime = 1489 s

Courant Number mean: 3.97636e-05 max: 0.00904244 velocity magnitude: 0.140332
Time = 0.009

MULES: Solving for alpha1
Liquid phase volume fraction = 0.00275421  Min(alpha1) = -6.87628e-29  Max(alpha1) = 1
MULES: Solving for alpha1
Liquid phase volume fraction = 0.00275421  Min(alpha1) = -5.93119e-29  Max(alpha1) = 1
Total solver time is 40
DICPCG:  Solving for pd, Initial residual = 0.00241329, Final residual = 0.000119384, No Iterations 333
Total solver time is 42
DICPCG:  Solving for pd, Initial residual = 0.00105239, Final residual = 5.00749e-05, No Iterations 348
Total solver time is 60
DICPCG:  Solving for pd, Initial residual = 0.000377109, Final residual = 9.91335e-08, No Iterations 495
time step continuity errors : sum local = 4.83986e-12, global = 3.16576e-24, cumulative = -4.2012e-24
ExecutionTime = 1634.47 s  ClockTime = 1652 s

Courant Number mean: 4.49218e-05 max: 0.00972306 velocity magnitude: 0.149329
Time = 0.01

MULES: Solving for alpha1
Liquid phase volume fraction = 0.00275421  Min(alpha1) = -6.30557e-29  Max(alpha1) = 1
MULES: Solving for alpha1
Liquid phase volume fraction = 0.00275421  Min(alpha1) = -6.63048e-29  Max(alpha1) = 1
Total solver time is 40
DICPCG:  Solving for pd, Initial residual = 0.00257792, Final residual = 0.000126895, No Iterations 330
Total solver time is 42
DICPCG:  Solving for pd, Initial residual = 0.00104162, Final residual = 4.89042e-05, No Iterations 348
slurmstepd: *** JOB 8034 ON ivb194 CANCELLED AT 2016-05-26T09:29:31 DUE TO TIME LIMIT ***
