 Data for JOB [38817,1] offset 0

 ========================   JOB MAP   ========================

 Data for node: ivb114	Num slots: 6	Max slots: 0	Num procs: 6
 	Process OMPI jobid: [38817,1] App: 0 Process rank: 0
 	Process OMPI jobid: [38817,1] App: 0 Process rank: 1
 	Process OMPI jobid: [38817,1] App: 0 Process rank: 2
 	Process OMPI jobid: [38817,1] App: 0 Process rank: 3
 	Process OMPI jobid: [38817,1] App: 0 Process rank: 4
 	Process OMPI jobid: [38817,1] App: 0 Process rank: 5

 =============================================================
[ivb114:32675] MCW rank 3 bound to socket 0[core 3[hwt 0]]: [./././B/./././././.][./././././././././.]
[ivb114:32675] MCW rank 4 bound to socket 0[core 4[hwt 0]]: [././././B/././././.][./././././././././.]
[ivb114:32675] MCW rank 5 bound to socket 0[core 5[hwt 0]]: [./././././B/./././.][./././././././././.]
[ivb114:32675] MCW rank 0 bound to socket 0[core 0[hwt 0]]: [B/././././././././.][./././././././././.]
[ivb114:32675] MCW rank 1 bound to socket 0[core 1[hwt 0]]: [./B/./././././././.][./././././././././.]
[ivb114:32675] MCW rank 2 bound to socket 0[core 2[hwt 0]]: [././B/././././././.][./././././././././.]
/*---------------------------------------------------------------------------*\
| =========                 |                                                 |
| \\      /  F ield         | foam-extend: Open Source CFD                    |
|  \\    /   O peration     | Version:     3.1                                |
|   \\  /    A nd           | Web:         http://www.extend-project.de       |
|    \\/     M anipulation  |                                                 |
\*---------------------------------------------------------------------------*/
Build    : 3.1-e2da948002a2
Exec     : pimpleDyMFoam -parallel
Date     : May 27 2016
Time     : 08:49:59
Host     : ivb114
PID      : 32731
CtrlDict : /home-2/vplatonov/foam/foam-extend-3.1/etc/controlDict
Case     : /home/vplatonov/tests/3D-mesh1-of3.1
nProcs   : 6
Slaves : 
5
(
ivb114.32720
ivb114.32722
ivb114.32727
ivb114.32733
ivb114.32719
)

Pstream initialized with:
    floatTransfer     : 0
    nProcsSimpleSum   : 0
    commsType         : blocking
SigFpe   : Enabling floating point exception trapping (FOAM_SIGFPE).

// * * * * * * * * * * * * * * * * * * * * * * * * * * * * * * * * * * * * * //
Create time

Create dynamic mesh for time = 0

Selecting dynamicFvMesh dynamicMotionSolverFvMesh
Selecting motion solver: displacementLaplacian
Selecting motion diffusion: quadratic
Selecting motion diffusion: inverseDistance
Reading field p

Reading field U

Reading/calculating face flux field phi

Selecting incompressible transport model Newtonian
Selecting turbulence model type LESModel
Selecting LES turbulence model oneEqEddy
oneEqEddyCoeffs
{
    ce              1.048;
    ck              0.094;
}

Reading field rAU if present


Starting time loop

Courant Number mean: 0 max: 0.0007592825 velocity magnitude: 0.4779
Reading old state
Before setting displacements
GAMGPCG:  Solving for cellDisplacementx, Initial residual = 0, Final residual = 0, No Iterations 0
GAMGPCG:  Solving for cellDisplacementy, Initial residual = 0, Final residual = 0, No Iterations 0
GAMGPCG:  Solving for cellDisplacementz, Initial residual = 0, Final residual = 0, No Iterations 0
Time = 5e-06

GAMGPCG:  Solving for cellDisplacementx, Initial residual = 0, Final residual = 0, No Iterations 0
GAMGPCG:  Solving for cellDisplacementy, Initial residual = 0, Final residual = 0, No Iterations 0
GAMGPCG:  Solving for cellDisplacementz, Initial residual = 0, Final residual = 0, No Iterations 0
volume continuity errors : volume = 4.535015, max error = 0, sum local = 0, global = 0
smoothSolver:  Solving for Ux, Initial residual = 1, Final residual = 2.285051e-08, No Iterations 1
smoothSolver:  Solving for Uy, Initial residual = 1, Final residual = 2.172388e-08, No Iterations 1
smoothSolver:  Solving for Uz, Initial residual = 0.9999962, Final residual = 4.2334e-08, No Iterations 1
Created persistent data with name p
Computing AINV with droptol 0.02
GPU: 498 iters: 25.36077 s: 20.23714 GB/s
Total exec time 25.36077
 Total comm time 0.7716828Pre time 0 Post time 0.7716828
SGPUBICGS:  Solving for p, Initial residual = 1, Final residual = 0.009414712, No Iterations 498
Computing AINV with droptol 0.02
GPU: 124 iters: 6.401082 s: 19.96413 GB/s
Total exec time 31.76185
 Total comm time 0.9953397Pre time 0 Post time 0.9953397
SGPUBICGS:  Solving for p, Initial residual = 0.0004689227, Final residual = 9.268931e-06, No Iterations 124
time step continuity errors : sum local = 2.083975e-09, global = -9.777038e-10, cumulative = -9.777038e-10
Moving mesh time step continuity errors : sum local = 2.083975e-09, global = -9.777038e-10, cumulative = -1.955408e-09
GPU: 35 iters: 1.831701 s: 19.69226 GB/s
Total exec time 33.59355
 Total comm time 1.055724Pre time 0 Post time 1.055724
SGPUBICGS:  Solving for p, Initial residual = 0.000109349, Final residual = 9.862093e-06, No Iterations 35
GPU: 449 iters: 23.1044 s: 20.02782 GB/s
Total exec time 56.69795
 Total comm time 1.88599Pre time 0 Post time 1.88599
SGPUBICGS:  Solving for p, Initial residual = 4.578704e-05, Final residual = 9.612065e-08, No Iterations 449
time step continuity errors : sum local = 2.162463e-11, global = -2.071292e-12, cumulative = -1.957479e-09
Moving mesh time step continuity errors : sum local = 2.162463e-11, global = -2.071292e-12, cumulative = -1.95955e-09
smoothSolver:  Solving for k, Initial residual = 1, Final residual = 1.262931e-11, No Iterations 2
ExecutionTime = 146.5 s  ClockTime = 147 s

Courant Number mean: 7.682859e-05 max: 0.002864325 velocity magnitude: 0.954844
yForce = -5.170012
Y= -7.981908e-12
Vy= -3.192761e-06
Time = 1e-05

GAMGPCG:  Solving for cellDisplacementx, Initial residual = 0, Final residual = 0, No Iterations 0
Total solver time is 0
Total solver time is 0
Total solver time is 1
GAMGPCG:  Solving for cellDisplacementy, Initial residual = 1, Final residual = 3.310245e-09, No Iterations 1
GAMGPCG:  Solving for cellDisplacementz, Initial residual = 0, Final residual = 0, No Iterations 0
volume continuity errors : volume = 4.535015, max error = 9.703405e-09, sum local = 6.20489e-15, global = 6.171885e-18
smoothSolver:  Solving for Ux, Initial residual = 0.9975289, Final residual = 4.954908e-07, No Iterations 1
smoothSolver:  Solving for Uy, Initial residual = 0.3328827, Final residual = 1.447036e-06, No Iterations 1
smoothSolver:  Solving for Uz, Initial residual = 0.3318134, Final residual = 3.704266e-07, No Iterations 1
GPU: 443 iters: 22.81631 s: 20.00969 GB/s
Total exec time 79.51425
 Total comm time 2.656271Pre time 0 Post time 2.656271
SGPUBICGS:  Solving for p, Initial residual = 0.003644661, Final residual = 3.357533e-05, No Iterations 443
GPU: 174 iters: 8.996582 s: 19.93213 GB/s
Total exec time 88.51084
 Total comm time 2.981261Pre time 0 Post time 2.981261
SGPUBICGS:  Solving for p, Initial residual = 0.0013909, Final residual = 1.389637e-05, No Iterations 174
time step continuity errors : sum local = 1.049063e-09, global = -9.713447e-10, cumulative = -2.930895e-09
Moving mesh time step continuity errors : sum local = 1.049063e-09, global = -9.713447e-10, cumulative = -3.90224e-09
GPU: 179 iters: 9.219515 s: 20.00908 GB/s
Total exec time 97.73035
 Total comm time 3.303025Pre time 0 Post time 3.303025
SGPUBICGS:  Solving for p, Initial residual = 0.0003116433, Final residual = 9.721981e-06, No Iterations 179
GPU: 609 iters: 31.33505 s: 20.02945 GB/s
Total exec time 129.0654
 Total comm time 4.402454Pre time 0 Post time 4.402454
SGPUBICGS:  Solving for p, Initial residual = 0.0001171207, Final residual = 8.774608e-08, No Iterations 609
time step continuity errors : sum local = 6.61352e-12, global = -1.009961e-12, cumulative = -3.903249e-09
Moving mesh time step continuity errors : sum local = 6.61352e-12, global = -1.009961e-12, cumulative = -3.904259e-09
smoothSolver:  Solving for k, Initial residual = 0.008782868, Final residual = 4.663737e-09, No Iterations 1
ExecutionTime = 252.03 s  ClockTime = 252 s

Courant Number mean: 7.683209e-05 max: 0.002856896 velocity magnitude: 0.9523675
yForce = 10.97472
Y= -7.001984e-12
Vy= 3.584725e-06
Time = 1.5e-05

GAMGPCG:  Solving for cellDisplacementx, Initial residual = 0, Final residual = 0, No Iterations 0
Total solver time is 0
Total solver time is 0
Total solver time is 1
GAMGPCG:  Solving for cellDisplacementy, Initial residual = 0.1797342, Final residual = 1.800929e-09, No Iterations 1
GAMGPCG:  Solving for cellDisplacementz, Initial residual = 0, Final residual = 0, No Iterations 0
volume continuity errors : volume = 4.535015, max error = 9.811909e-09, sum local = 6.940482e-15, global = 3.794262e-19
smoothSolver:  Solving for Ux, Initial residual = 0.9921804, Final residual = 4.933075e-07, No Iterations 1
smoothSolver:  Solving for Uy, Initial residual = 0.1844033, Final residual = 8.681334e-07, No Iterations 1
smoothSolver:  Solving for Uz, Initial residual = 0.9461003, Final residual = 1.180463e-06, No Iterations 1
GPU: 518 iters: 26.65738 s: 20.02601 GB/s
Total exec time 155.7228
 Total comm time 5.316716Pre time 0 Post time 5.316716
SGPUBICGS:  Solving for p, Initial residual = 0.002799851, Final residual = 2.056951e-05, No Iterations 518
GPU: 118 iters: 6.088533 s: 19.97337 GB/s
Total exec time 161.8113
 Total comm time 5.525362Pre time 0 Post time 5.525362
SGPUBICGS:  Solving for p, Initial residual = 0.09488333, Final residual = 0.0009061409, No Iterations 118
time step continuity errors : sum local = 3.256181e-10, global = -6.599276e-11, cumulative = -3.970252e-09
Moving mesh time step continuity errors : sum local = 3.256181e-10, global = -6.599276e-11, cumulative = -4.036245e-09
GPU: 155 iters: 8.010614 s: 19.94105 GB/s
Total exec time 169.8219
 Total comm time 5.834703Pre time 0 Post time 5.834703
SGPUBICGS:  Solving for p, Initial residual = 0.02189126, Final residual = 0.0001943005, No Iterations 155
GPU: 652 iters: 33.57741 s: 20.01163 GB/s
Total exec time 203.3993
 Total comm time 7.016681Pre time 0 Post time 7.016681
SGPUBICGS:  Solving for p, Initial residual = 0.007333146, Final residual = 9.837323e-08, No Iterations 652
time step continuity errors : sum local = 3.196004e-14, global = -4.171649e-15, cumulative = -4.036249e-09
Moving mesh time step continuity errors : sum local = 3.196004e-14, global = -4.171649e-15, cumulative = -4.036253e-09
smoothSolver:  Solving for k, Initial residual = 0.003835884, Final residual = 2.147255e-09, No Iterations 1
ExecutionTime = 357.27 s  ClockTime = 358 s

Courant Number mean: 7.68329e-05 max: 0.002858845 velocity magnitude: 0.9530171
yForce = -3.993944
Y= 4.755436e-12
Vy= 1.118245e-06
Time = 2e-05

GAMGPCG:  Solving for cellDisplacementx, Initial residual = 0, Final residual = 0, No Iterations 0
Total solver time is 0
Total solver time is 0
Total solver time is 1
GAMGPCG:  Solving for cellDisplacementy, Initial residual = 1, Final residual = 3.111117e-09, No Iterations 1
GAMGPCG:  Solving for cellDisplacementz, Initial residual = 0, Final residual = 0, No Iterations 0
volume continuity errors : volume = 4.535015, max error = 1.138506e-08, sum local = 6.961644e-15, global = -7.068139e-18
smoothSolver:  Solving for Ux, Initial residual = 0.05057172, Final residual = 5.06313e-08, No Iterations 1
smoothSolver:  Solving for Uy, Initial residual = 0.01295743, Final residual = 9.190989e-08, No Iterations 1
smoothSolver:  Solving for Uz, Initial residual = 0.882366, Final residual = 9.49358e-07, No Iterations 1
GPU: 42 iters: 2.185481 s: 19.80543 GB/s
Total exec time 205.5848
 Total comm time 7.090917Pre time 0 Post time 7.090917
SGPUBICGS:  Solving for p, Initial residual = 0.2265105, Final residual = 0.001933821, No Iterations 42
GPU: 120 iters: 6.218472 s: 19.88748 GB/s
Total exec time 211.8033
 Total comm time 7.330606Pre time 0 Post time 7.330606
SGPUBICGS:  Solving for p, Initial residual = 0.01209381, Final residual = 0.0001207522, No Iterations 120
time step continuity errors : sum local = 3.254685e-11, global = 4.293317e-13, cumulative = -4.035824e-09
Moving mesh time step continuity errors : sum local = 3.254685e-11, global = 4.293317e-13, cumulative = -4.035395e-09
GPU: 155 iters: 7.996074 s: 19.97731 GB/s
Total exec time 219.7994
 Total comm time 7.619161Pre time 0 Post time 7.619161
SGPUBICGS:  Solving for p, Initial residual = 0.004193108, Final residual = 3.917333e-05, No Iterations 155
GPU: 526 iters: 27.08198 s: 20.01647 GB/s
Total exec time 246.8813
 Total comm time 8.579563Pre time 0 Post time 8.579563
SGPUBICGS:  Solving for p, Initial residual = 0.001778356, Final residual = 9.301602e-08, No Iterations 526
time step continuity errors : sum local = 2.4985e-14, global = -2.321885e-15, cumulative = -4.035397e-09
Moving mesh time step continuity errors : sum local = 2.4985e-14, global = -2.321885e-15, cumulative = -4.035399e-09
smoothSolver:  Solving for k, Initial residual = 0.002273483, Final residual = 1.353655e-09, No Iterations 1
ExecutionTime = 432.76 s  ClockTime = 434 s

Courant Number mean: 7.683348e-05 max: 0.002856738 velocity magnitude: 0.9523148
yForce = -0.3791163
Y= 9.761343e-12
Vy= 8.841182e-07
Time = 2.5e-05

GAMGPCG:  Solving for cellDisplacementx, Initial residual = 0, Final residual = 0, No Iterations 0
Total solver time is 0
Total solver time is 0
Total solver time is 1
GAMGPCG:  Solving for cellDisplacementy, Initial residual = 0.5170719, Final residual = 2.592341e-09, No Iterations 1
GAMGPCG:  Solving for cellDisplacementz, Initial residual = 0, Final residual = 0, No Iterations 0
volume continuity errors : volume = 4.535015, max error = 9.751774e-09, sum local = 7.038733e-15, global = 5.431403e-18
smoothSolver:  Solving for Ux, Initial residual = 0.02707274, Final residual = 1.780077e-08, No Iterations 1
smoothSolver:  Solving for Uy, Initial residual = 0.004492942, Final residual = 3.158538e-08, No Iterations 1
smoothSolver:  Solving for Uz, Initial residual = 0.7577711, Final residual = 5.322881e-07, No Iterations 1
GPU: 9 iters: 0.4974163 s: 18.64681 GB/s
Total exec time 247.3788
 Total comm time 8.604014Pre time 0 Post time 8.604014
SGPUBICGS:  Solving for p, Initial residual = 0.1534127, Final residual = 0.001459238, No Iterations 9
GPU: 118 iters: 6.116917 s: 19.88069 GB/s
Total exec time 253.4957
 Total comm time 8.807357Pre time 0 Post time 8.807357
SGPUBICGS:  Solving for p, Initial residual = 0.003690519, Final residual = 3.474091e-05, No Iterations 118
time step continuity errors : sum local = 8.257966e-12, global = -8.972703e-14, cumulative = -4.035489e-09
Moving mesh time step continuity errors : sum local = 8.257966e-12, global = -8.972703e-14, cumulative = -4.035579e-09
GPU: 189 iters: 9.751316 s: 19.97472 GB/s
Total exec time 263.247
 Total comm time 9.141214Pre time 0 Post time 9.141214
SGPUBICGS:  Solving for p, Initial residual = 0.0009328185, Final residual = 9.700416e-06, No Iterations 189
GPU: 441 iters: 22.67823 s: 20.04064 GB/s
Total exec time 285.9252
 Total comm time 9.883156Pre time 0 Post time 9.883156
SGPUBICGS:  Solving for p, Initial residual = 0.0003282201, Final residual = 4.422858e-08, No Iterations 441
time step continuity errors : sum local = 1.04936e-14, global = -2.590343e-15, cumulative = -4.035581e-09
Moving mesh time step continuity errors : sum local = 1.04936e-14, global = -2.590343e-15, cumulative = -4.035584e-09
smoothSolver:  Solving for k, Initial residual = 0.001554987, Final residual = 9.81288e-10, No Iterations 1
ExecutionTime = 503.4 s  ClockTime = 504 s

Courant Number mean: 7.68336e-05 max: 0.002854617 velocity magnitude: 0.9516077
yForce = 1.489682
Y= 1.648183e-11
Vy= 1.804076e-06
Time = 3e-05

GAMGPCG:  Solving for cellDisplacementx, Initial residual = 0, Final residual = 0, No Iterations 0
Total solver time is 0
Total solver time is 0
Total solver time is 1
GAMGPCG:  Solving for cellDisplacementy, Initial residual = 0.4755636, Final residual = 1.611251e-09, No Iterations 1
GAMGPCG:  Solving for cellDisplacementz, Initial residual = 0, Final residual = 0, No Iterations 0
volume continuity errors : volume = 4.535015, max error = 9.148094e-09, sum local = 7.051588e-15, global = -1.86299e-18
smoothSolver:  Solving for Ux, Initial residual = 0.01761704, Final residual = 8.823246e-09, No Iterations 1
smoothSolver:  Solving for Uy, Initial residual = 0.00123876, Final residual = 1.623142e-08, No Iterations 1
smoothSolver:  Solving for Uz, Initial residual = 0.2000446, Final residual = 1.427772e-06, No Iterations 1
GPU: 3 iters: 0.1856104 s: 16.65717 GB/s
Total exec time 286.1108
 Total comm time 9.889142Pre time 0 Post time 9.889142
SGPUBICGS:  Solving for p, Initial residual = 0.108844, Final residual = 0.0007001648, No Iterations 3
GPU: 43 iters: 2.247409 s: 19.71825 GB/s
Total exec time 288.3582
 Total comm time 9.969694Pre time 0 Post time 9.969694
SGPUBICGS:  Solving for p, Initial residual = 0.001321391, Final residual = 1.266208e-05, No Iterations 43
time step continuity errors : sum local = 2.716372e-12, global = -4.509363e-15, cumulative = -4.035588e-09
Moving mesh time step continuity errors : sum local = 2.716372e-12, global = -4.509363e-15, cumulative = -4.035593e-09
GPU: 33 iters: 1.72125 s: 19.75841 GB/s
Total exec time 290.0795
 Total comm time 10.03053Pre time 0 Post time 10.03053
SGPUBICGS:  Solving for p, Initial residual = 0.0002615022, Final residual = 9.951016e-06, No Iterations 33
GPU: 458 iters: 23.54162 s: 20.04985 GB/s
Total exec time 313.6211
 Total comm time 10.85553Pre time 0 Post time 10.85553
SGPUBICGS:  Solving for p, Initial residual = 0.0001025485, Final residual = 9.173172e-08, No Iterations 458
time step continuity errors : sum local = 1.967153e-14, global = -1.799609e-14, cumulative = -4.035611e-09
Moving mesh time step continuity errors : sum local = 1.967153e-14, global = -1.799609e-14, cumulative = -4.035629e-09
smoothSolver:  Solving for k, Initial residual = 0.001157026, Final residual = 7.629509e-10, No Iterations 1
ExecutionTime = 563.06 s  ClockTime = 564 s

Courant Number mean: 7.68337e-05 max: 0.002852248 velocity magnitude: 0.9508181
yForce = -0.8659508
Y= 2.416527e-11
Vy= 1.269302e-06
Time = 3.5e-05

GAMGPCG:  Solving for cellDisplacementx, Initial residual = 0, Final residual = 0, No Iterations 0
Total solver time is 0
Total solver time is 0
Total solver time is 1
GAMGPCG:  Solving for cellDisplacementy, Initial residual = 0.3901345, Final residual = 1.256662e-09, No Iterations 1
GAMGPCG:  Solving for cellDisplacementz, Initial residual = 0, Final residual = 0, No Iterations 0
volume continuity errors : volume = 4.535015, max error = 1.097774e-08, sum local = 7.069498e-15, global = -2.339381e-18
smoothSolver:  Solving for Ux, Initial residual = 0.01352928, Final residual = 6.939392e-09, No Iterations 1
smoothSolver:  Solving for Uy, Initial residual = 0.000961794, Final residual = 1.214032e-08, No Iterations 1
smoothSolver:  Solving for Uz, Initial residual = 0.4024178, Final residual = 2.810411e-06, No Iterations 1
GPU: 2 iters: 0.1334921 s: 15.44033 GB/s
Total exec time 313.7546
 Total comm time 10.85988Pre time 0 Post time 10.85988
SGPUBICGS:  Solving for p, Initial residual = 0.09114565, Final residual = 0.0003744167, No Iterations 2
GPU: 22 iters: 1.172063 s: 19.34433 GB/s
Total exec time 314.9267
 Total comm time 10.90048Pre time 0 Post time 10.90048
SGPUBICGS:  Solving for p, Initial residual = 0.000558309, Final residual = 9.77292e-06, No Iterations 22
time step continuity errors : sum local = 1.925206e-12, global = -3.800554e-14, cumulative = -4.035667e-09
Moving mesh time step continuity errors : sum local = 1.925206e-12, global = -3.800554e-14, cumulative = -4.035705e-09
GPU: 8 iters: 0.4427654 s: 18.6208 GB/s
Total exec time 315.3694
 Total comm time 10.91456Pre time 0 Post time 10.91456
SGPUBICGS:  Solving for p, Initial residual = 8.192877e-05, Final residual = 9.482391e-06, No Iterations 8
GPU: 467 iters: 24.045 s: 20.01585 GB/s
Total exec time 339.4144
 Total comm time 11.73153Pre time 0 Post time 11.73153
SGPUBICGS:  Solving for p, Initial residual = 2.892754e-05, Final residual = 9.939138e-08, No Iterations 467
time step continuity errors : sum local = 1.957672e-14, global = -1.012139e-14, cumulative = -4.035715e-09
Moving mesh time step continuity errors : sum local = 1.957672e-14, global = -1.012139e-14, cumulative = -4.035725e-09
smoothSolver:  Solving for k, Initial residual = 0.0009098162, Final residual = 6.331167e-10, No Iterations 1
ExecutionTime = 619.68 s  ClockTime = 621 s

Courant Number mean: 7.683375e-05 max: 0.002849504 velocity magnitude: 0.9499033
yForce = 0.08539481
Y= 3.064361e-11
Vy= 1.322036e-06
Time = 4e-05

GAMGPCG:  Solving for cellDisplacementx, Initial residual = 0, Final residual = 0, No Iterations 0
Total solver time is 0
Total solver time is 0
Total solver time is 1
GAMGPCG:  Solving for cellDisplacementy, Initial residual = 0.2747548, Final residual = 9.530142e-10, No Iterations 1
GAMGPCG:  Solving for cellDisplacementz, Initial residual = 0, Final residual = 0, No Iterations 0
volume continuity errors : volume = 4.535015, max error = 9.635744e-09, sum local = 7.077897e-15, global = 2.070295e-18
smoothSolver:  Solving for Ux, Initial residual = 0.01095608, Final residual = 5.67771e-09, No Iterations 1
smoothSolver:  Solving for Uy, Initial residual = 0.0008056566, Final residual = 9.767298e-09, No Iterations 1
smoothSolver:  Solving for Uz, Initial residual = 0.2637646, Final residual = 2.696297e-06, No Iterations 1
GPU: 2 iters: 0.1331987 s: 15.47433 GB/s
Total exec time 339.5476
 Total comm time 11.73662Pre time 0 Post time 11.73662
SGPUBICGS:  Solving for p, Initial residual = 0.07497386, Final residual = 0.0001462776, No Iterations 2
GPU: 9 iters: 0.4960262 s: 18.69907 GB/s
Total exec time 340.0437
 Total comm time 11.75436Pre time 0 Post time 11.75436
SGPUBICGS:  Solving for p, Initial residual = 0.0002943281, Final residual = 9.68826e-06, No Iterations 9
time step continuity errors : sum local = 1.773094e-12, global = 5.518362e-15, cumulative = -4.03572e-09
Moving mesh time step continuity errors : sum local = 1.773094e-12, global = 5.518362e-15, cumulative = -4.035714e-09
GPU: 2 iters: 0.1334413 s: 15.44621 GB/s
Total exec time 340.1771
 Total comm time 11.75879Pre time 0 Post time 11.75879
SGPUBICGS:  Solving for p, Initial residual = 3.582353e-05, Final residual = 9.923196e-06, No Iterations 2
GPU: 259 iters: 13.36493 s: 19.97171 GB/s
Total exec time 353.542
 Total comm time 12.21939Pre time 0 Post time 12.21939
SGPUBICGS:  Solving for p, Initial residual = 1.563489e-05, Final residual = 9.983046e-08, No Iterations 259
time step continuity errors : sum local = 1.82695e-14, global = 1.129466e-14, cumulative = -4.035703e-09
Moving mesh time step continuity errors : sum local = 1.82695e-14, global = 1.129466e-14, cumulative = -4.035692e-09
smoothSolver:  Solving for k, Initial residual = 0.000743744, Final residual = 5.397659e-10, No Iterations 1
ExecutionTime = 665.23 s  ClockTime = 666 s

Courant Number mean: 7.683377e-05 max: 0.002846384 velocity magnitude: 0.9488633
yForce = 0.2018798
Y= 3.756547e-11
Vy= 1.446705e-06
Time = 4.5e-05

GAMGPCG:  Solving for cellDisplacementx, Initial residual = 0, Final residual = 0, No Iterations 0
Total solver time is 0
Total solver time is 0
Total solver time is 1
GAMGPCG:  Solving for cellDisplacementy, Initial residual = 0.245504, Final residual = 7.83285e-10, No Iterations 1
GAMGPCG:  Solving for cellDisplacementz, Initial residual = 0, Final residual = 0, No Iterations 0
volume continuity errors : volume = 4.535015, max error = 8.015633e-09, sum local = 7.073333e-15, global = 6.785959e-19
smoothSolver:  Solving for Ux, Initial residual = 0.009362791, Final residual = 4.836519e-09, No Iterations 1
smoothSolver:  Solving for Uy, Initial residual = 0.0006803517, Final residual = 8.073788e-09, No Iterations 1
smoothSolver:  Solving for Uz, Initial residual = 0.3191606, Final residual = 1.701703e-06, No Iterations 1
GPU: 2 iters: 0.1349466 s: 15.27391 GB/s
Total exec time 353.677
 Total comm time 12.2235Pre time 0 Post time 12.2235
SGPUBICGS:  Solving for p, Initial residual = 0.06277085, Final residual = 0.0001103248, No Iterations 2
GPU: 8 iters: 0.4430582 s: 18.6085 GB/s
Total exec time 354.12
 Total comm time 12.24011Pre time 0 Post time 12.24011
SGPUBICGS:  Solving for p, Initial residual = 0.0002191648, Final residual = 9.316052e-06, No Iterations 8
time step continuity errors : sum local = 1.597774e-12, global = 3.721459e-14, cumulative = -4.035654e-09
Moving mesh time step continuity errors : sum local = 1.597774e-12, global = 3.721459e-14, cumulative = -4.035617e-09
GPU: 2 iters: 0.1329371 s: 15.50478 GB/s
Total exec time 354.253
 Total comm time 12.24422Pre time 0 Post time 12.24422
SGPUBICGS:  Solving for p, Initial residual = 2.337408e-05, Final residual = 9.443482e-06, No Iterations 2
GPU: 375 iters: 19.36252 s: 19.95959 GB/s
Total exec time 373.6155
 Total comm time 12.91568Pre time 0 Post time 12.91568
SGPUBICGS:  Solving for p, Initial residual = 1.14755e-05, Final residual = 9.972248e-08, No Iterations 375
time step continuity errors : sum local = 1.710259e-14, global = 4.576905e-15, cumulative = -4.035613e-09
Moving mesh time step continuity errors : sum local = 1.710259e-14, global = 4.576905e-15, cumulative = -4.035608e-09
smoothSolver:  Solving for k, Initial residual = 0.0006256343, Final residual = 4.717996e-10, No Iterations 1
ExecutionTime = 717.46 s  ClockTime = 719 s

Courant Number mean: 7.683376e-05 max: 0.002842883 velocity magnitude: 0.9482459
yForce = -0.1525436
Y= 4.456348e-11
Vy= 1.352499e-06
Time = 5e-05

GAMGPCG:  Solving for cellDisplacementx, Initial residual = 0, Final residual = 0, No Iterations 0
Total solver time is 0
Total solver time is 0
Total solver time is 1
GAMGPCG:  Solving for cellDisplacementy, Initial residual = 0.2129773, Final residual = 7.065034e-10, No Iterations 1
GAMGPCG:  Solving for cellDisplacementz, Initial residual = 0, Final residual = 0, No Iterations 0
volume continuity errors : volume = 4.535015, max error = 7.921985e-09, sum local = 7.068607e-15, global = -1.134737e-18
smoothSolver:  Solving for Ux, Initial residual = 0.008280926, Final residual = 4.21993e-09, No Iterations 1
smoothSolver:  Solving for Uy, Initial residual = 0.0005949873, Final residual = 6.847821e-09, No Iterations 1
smoothSolver:  Solving for Uz, Initial residual = 0.2819686, Final residual = 9.150233e-07, No Iterations 1
GPU: 2 iters: 0.1345184 s: 15.32252 GB/s
Total exec time 373.75
 Total comm time 12.91927Pre time 0 Post time 12.91927
SGPUBICGS:  Solving for p, Initial residual = 0.05636726, Final residual = 8.505914e-05, No Iterations 2
GPU: 6 iters: 0.3385021 s: 18.2672 GB/s
Total exec time 374.0885
 Total comm time 12.9324Pre time 0 Post time 12.9324
SGPUBICGS:  Solving for p, Initial residual = 0.0001704475, Final residual = 8.95507e-06, No Iterations 6
time step continuity errors : sum local = 1.449121e-12, global = -1.153529e-14, cumulative = -4.03562e-09
Moving mesh time step continuity errors : sum local = 1.449121e-12, global = -1.153529e-14, cumulative = -4.035631e-09
GPU: 1 iters: 0.08264195 s: 12.47043 GB/s
Total exec time 374.1711
 Total comm time 12.93527Pre time 0 Post time 12.93527
SGPUBICGS:  Solving for p, Initial residual = 1.873263e-05, Final residual = 9.45262e-06, No Iterations 1
GPU: 446 iters: 22.95521 s: 20.0233 GB/s
Total exec time 397.1264
 Total comm time 13.75829Pre time 0 Post time 13.75829
SGPUBICGS:  Solving for p, Initial residual = 1.047411e-05, Final residual = 9.259035e-08, No Iterations 446
time step continuity errors : sum local = 1.498272e-14, global = 6.962529e-15, cumulative = -4.035624e-09
Moving mesh time step continuity errors : sum local = 1.498272e-14, global = 6.962529e-15, cumulative = -4.035617e-09
smoothSolver:  Solving for k, Initial residual = 0.0005379125, Final residual = 4.204897e-10, No Iterations 1
ExecutionTime = 773.84 s  ClockTime = 775 s

yForce = 0.04445726
Y= 5.13946e-11
Vy= 1.379952e-06
End

Finalising parallel run
