 Data for JOB [63302,1] offset 0

 ========================   JOB MAP   ========================

 Data for node: ivb106	Num slots: 4	Max slots: 0	Num procs: 4
 	Process OMPI jobid: [63302,1] App: 0 Process rank: 0
 	Process OMPI jobid: [63302,1] App: 0 Process rank: 1
 	Process OMPI jobid: [63302,1] App: 0 Process rank: 2
 	Process OMPI jobid: [63302,1] App: 0 Process rank: 3

 =============================================================
[ivb106:31956] MCW rank 2 bound to socket 0[core 2[hwt 0]]: [././B/././././././.][./././././././././.]
[ivb106:31956] MCW rank 3 bound to socket 0[core 3[hwt 0]]: [./././B/./././././.][./././././././././.]
[ivb106:31956] MCW rank 0 bound to socket 0[core 0[hwt 0]]: [B/././././././././.][./././././././././.]
[ivb106:31956] MCW rank 1 bound to socket 0[core 1[hwt 0]]: [./B/./././././././.][./././././././././.]
0
1
2
3
/*---------------------------------------------------------------------------*\
| =========                 |                                                 |
| \\      /  F ield         | foam-extend: Open Source CFD                    |
|  \\    /   O peration     | Version:     3.1                                |
|   \\  /    A nd           | Web:         http://www.extend-project.de       |
|    \\/     M anipulation  |                                                 |
\*---------------------------------------------------------------------------*/
Build    : 3.1-e2da948002a2
Exec     : interFoam -parallel
Date     : May 19 2016
Time     : 17:34:59
Host     : ivb106
PID      : 31995
CtrlDict : /home-2/vplatonov/foam/foam-extend-3.1/etc/controlDict
Case     : /home/vplatonov/tests/rt12mln
nProcs   : 4
Slaves : 
3
(
ivb106.32000
ivb106.31989
ivb106.31988
)

Pstream initialized with:
    floatTransfer     : 0
    nProcsSimpleSum   : 0
    commsType         : blocking
SigFpe   : Enabling floating point exception trapping (FOAM_SIGFPE).

// * * * * * * * * * * * * * * * * * * * * * * * * * * * * * * * * * * * * * //
Create time

Create mesh for time = 0


Reading g
Reading field pd

Reading field alpha1

Reading field U

Reading/calculating face flux field phi

Reading transportProperties

Selecting incompressible transport model Newtonian
Selecting incompressible transport model Newtonian
Calculating field g.h

Selecting turbulence model type laminar
time step continuity errors : sum local = 0, global = 0, cumulative = 0
Created persistent data with name pcorr
OGPUPCG:  Solving for pcorr, Initial residual = 0, Final residual = 0, No Iterations 0
time step continuity errors : sum local = 0, global = 0, cumulative = 0
Courant Number mean: 0 max: 0 velocity magnitude: 0

Starting time loop

Courant Number mean: 0 max: 0 velocity magnitude: 0
Time = 0.001

MULES: Solving for alpha1
Liquid phase volume fraction = 0.00275421  Min(alpha1) = 0  Max(alpha1) = 1
MULES: Solving for alpha1
Liquid phase volume fraction = 0.00275421  Min(alpha1) = 0  Max(alpha1) = 1
Created persistent data with name pd
Computing AINV with droptol 0.02
GPU: 6 iters: 0.0866682 s: 92.6272 GB/s
OGPUPCG:  Solving for pd, Initial residual = 1, Final residual = 0.0426057, No Iterations 6
Computing AINV with droptol 0.02
GPU: 185 iters: 2.30829 s: 107.233 GB/s
OGPUPCG:  Solving for pd, Initial residual = 0.0257361, Final residual = 0.00127499, No Iterations 185
GPU: 909 iters: 11.2454 s: 108.152 GB/s
OGPUPCG:  Solving for pd, Initial residual = 0.00719054, Final residual = 9.64836e-08, No Iterations 909
time step continuity errors : sum local = 7.1789e-12, global = 4.05889e-25, cumulative = 4.05889e-25
ExecutionTime = 125.3 s  ClockTime = 151 s

Courant Number mean: 4.85427e-06 max: 0.00215706 velocity magnitude: 0.0337041
Time = 0.002

MULES: Solving for alpha1
Liquid phase volume fraction = 0.00275421  Min(alpha1) = 0  Max(alpha1) = 1
MULES: Solving for alpha1
Liquid phase volume fraction = 0.00275421  Min(alpha1) = 0  Max(alpha1) = 1
GPU: 179 iters: 2.22892 s: 107.45 GB/s
OGPUPCG:  Solving for pd, Initial residual = 0.00367726, Final residual = 0.000182407, No Iterations 179
GPU: 304 iters: 3.76782 s: 107.952 GB/s
OGPUPCG:  Solving for pd, Initial residual = 0.00220832, Final residual = 0.000109914, No Iterations 304
GPU: 873 iters: 10.7856 s: 108.297 GB/s
OGPUPCG:  Solving for pd, Initial residual = 0.00198509, Final residual = 9.74388e-08, No Iterations 873
time step continuity errors : sum local = 4.56765e-12, global = -2.40374e-25, cumulative = 1.65516e-25
ExecutionTime = 173.4 s  ClockTime = 200 s

Courant Number mean: 7.65155e-06 max: 0.00313128 velocity magnitude: 0.0489262
Time = 0.003

MULES: Solving for alpha1
Liquid phase volume fraction = 0.00275421  Min(alpha1) = -4.00524e-30  Max(alpha1) = 1
MULES: Solving for alpha1
Liquid phase volume fraction = 0.00275421  Min(alpha1) = -1.76784e-30  Max(alpha1) = 1
GPU: 339 iters: 4.19365 s: 108.157 GB/s
OGPUPCG:  Solving for pd, Initial residual = 0.00426125, Final residual = 0.000206501, No Iterations 339
GPU: 332 iters: 4.11868 s: 107.852 GB/s
OGPUPCG:  Solving for pd, Initial residual = 0.00314212, Final residual = 0.000147246, No Iterations 332
GPU: 799 iters: 9.88624 s: 108.134 GB/s
OGPUPCG:  Solving for pd, Initial residual = 0.00265593, Final residual = 9.85342e-08, No Iterations 799
time step continuity errors : sum local = 4.61805e-12, global = 1.56961e-24, cumulative = 1.73513e-24
ExecutionTime = 223.34 s  ClockTime = 250 s

Courant Number mean: 1.35467e-05 max: 0.00482415 velocity magnitude: 0.0753773
Time = 0.004

MULES: Solving for alpha1
Liquid phase volume fraction = 0.00275421  Min(alpha1) = -2.08722e-30  Max(alpha1) = 1
MULES: Solving for alpha1
Liquid phase volume fraction = 0.00275421  Min(alpha1) = -4.17371e-30  Max(alpha1) = 1
GPU: 332 iters: 4.1157 s: 107.93 GB/s
OGPUPCG:  Solving for pd, Initial residual = 0.0034433, Final residual = 0.000164551, No Iterations 332
GPU: 344 iters: 4.25242 s: 108.235 GB/s
OGPUPCG:  Solving for pd, Initial residual = 0.00326026, Final residual = 0.000154603, No Iterations 344
GPU: 862 iters: 10.6636 s: 108.156 GB/s
OGPUPCG:  Solving for pd, Initial residual = 0.00245733, Final residual = 9.87426e-08, No Iterations 862
time step continuity errors : sum local = 4.61007e-12, global = -6.28933e-25, cumulative = 1.1062e-24
ExecutionTime = 273.73 s  ClockTime = 300 s

Courant Number mean: 1.92214e-05 max: 0.00597454 velocity magnitude: 0.0933521
Time = 0.005

MULES: Solving for alpha1
Liquid phase volume fraction = 0.00275421  Min(alpha1) = -1.86132e-29  Max(alpha1) = 1
MULES: Solving for alpha1
Liquid phase volume fraction = 0.00275421  Min(alpha1) = -6.98006e-30  Max(alpha1) = 1
GPU: 340 iters: 4.21 s: 108.055 GB/s
OGPUPCG:  Solving for pd, Initial residual = 0.00216668, Final residual = 0.000105354, No Iterations 340
GPU: 340 iters: 4.22065 s: 107.782 GB/s
OGPUPCG:  Solving for pd, Initial residual = 0.00181862, Final residual = 8.5809e-05, No Iterations 340
GPU: 855 iters: 10.6107 s: 107.812 GB/s
OGPUPCG:  Solving for pd, Initial residual = 0.00146786, Final residual = 9.79845e-08, No Iterations 855
time step continuity errors : sum local = 4.5658e-12, global = -1.71747e-24, cumulative = -6.11271e-25
ExecutionTime = 324.13 s  ClockTime = 351 s

Courant Number mean: 2.43612e-05 max: 0.00683424 velocity magnitude: 0.106785
Time = 0.006

MULES: Solving for alpha1
Liquid phase volume fraction = 0.00275421  Min(alpha1) = -1.58997e-29  Max(alpha1) = 1
MULES: Solving for alpha1
Liquid phase volume fraction = 0.00275421  Min(alpha1) = -1.43858e-29  Max(alpha1) = 1
GPU: 344 iters: 4.26192 s: 107.994 GB/s
OGPUPCG:  Solving for pd, Initial residual = 0.00226211, Final residual = 0.000109543, No Iterations 344
GPU: 352 iters: 4.35961 s: 108.029 GB/s
OGPUPCG:  Solving for pd, Initial residual = 0.00120655, Final residual = 5.88738e-05, No Iterations 352
GPU: 831 iters: 10.2688 s: 108.275 GB/s
OGPUPCG:  Solving for pd, Initial residual = 0.000719454, Final residual = 9.99293e-08, No Iterations 831
time step continuity errors : sum local = 4.64182e-12, global = 8.41493e-25, cumulative = 2.30221e-25
ExecutionTime = 373.58 s  ClockTime = 401 s

Courant Number mean: 2.94768e-05 max: 0.00763739 velocity magnitude: 0.119334
Time = 0.007

MULES: Solving for alpha1
Liquid phase volume fraction = 0.00275421  Min(alpha1) = -3.03585e-29  Max(alpha1) = 1
MULES: Solving for alpha1
Liquid phase volume fraction = 0.00275421  Min(alpha1) = -3.33776e-29  Max(alpha1) = 1
GPU: 343 iters: 4.241 s: 108.211 GB/s
OGPUPCG:  Solving for pd, Initial residual = 0.00231549, Final residual = 0.000114098, No Iterations 343
GPU: 355 iters: 4.40766 s: 107.762 GB/s
OGPUPCG:  Solving for pd, Initial residual = 0.00111921, Final residual = 5.35793e-05, No Iterations 355
GPU: 509 iters: 6.30506 s: 108.013 GB/s
OGPUPCG:  Solving for pd, Initial residual = 0.000546807, Final residual = 9.73449e-08, No Iterations 509
time step continuity errors : sum local = 4.80398e-12, global = 1.37086e-23, cumulative = 1.39388e-23
ExecutionTime = 420.29 s  ClockTime = 448 s

Courant Number mean: 3.45977e-05 max: 0.00834498 velocity magnitude: 0.13039
Time = 0.008

MULES: Solving for alpha1
Liquid phase volume fraction = 0.00275421  Min(alpha1) = -6.03537e-29  Max(alpha1) = 1
MULES: Solving for alpha1
Liquid phase volume fraction = 0.00275421  Min(alpha1) = -5.64899e-29  Max(alpha1) = 1
GPU: 343 iters: 4.24513 s: 108.106 GB/s
OGPUPCG:  Solving for pd, Initial residual = 0.00235363, Final residual = 0.000112142, No Iterations 343
GPU: 355 iters: 4.39801 s: 107.999 GB/s
OGPUPCG:  Solving for pd, Initial residual = 0.0010888, Final residual = 5.32929e-05, No Iterations 355
GPU: 512 iters: 6.3247 s: 108.312 GB/s
OGPUPCG:  Solving for pd, Initial residual = 0.00045987, Final residual = 9.68652e-08, No Iterations 512
time step continuity errors : sum local = 4.94979e-12, global = -7.44818e-24, cumulative = 6.49065e-24
ExecutionTime = 467.01 s  ClockTime = 495 s

Courant Number mean: 3.97329e-05 max: 0.00904256 velocity magnitude: 0.140304
Time = 0.009

MULES: Solving for alpha1
Liquid phase volume fraction = 0.00275421  Min(alpha1) = -4.92085e-29  Max(alpha1) = 1
MULES: Solving for alpha1
Liquid phase volume fraction = 0.00275421  Min(alpha1) = -4.68195e-29  Max(alpha1) = 1
GPU: 341 iters: 4.21463 s: 108.254 GB/s
OGPUPCG:  Solving for pd, Initial residual = 0.00241357, Final residual = 0.000119029, No Iterations 341
GPU: 356 iters: 4.3967 s: 108.335 GB/s
OGPUPCG:  Solving for pd, Initial residual = 0.00105179, Final residual = 4.93191e-05, No Iterations 356
GPU: 503 iters: 6.23674 s: 107.909 GB/s
OGPUPCG:  Solving for pd, Initial residual = 0.000376315, Final residual = 9.94533e-08, No Iterations 503
time step continuity errors : sum local = 4.85567e-12, global = -5.20283e-24, cumulative = 1.28782e-24
ExecutionTime = 513.52 s  ClockTime = 541 s

Courant Number mean: 4.48873e-05 max: 0.00972324 velocity magnitude: 0.149309
Time = 0.01

MULES: Solving for alpha1
Liquid phase volume fraction = 0.00275421  Min(alpha1) = -5.53262e-29  Max(alpha1) = 1
MULES: Solving for alpha1
Liquid phase volume fraction = 0.00275421  Min(alpha1) = -3.41701e-29  Max(alpha1) = 1
GPU: 340 iters: 4.21378 s: 107.958 GB/s
OGPUPCG:  Solving for pd, Initial residual = 0.00257849, Final residual = 0.000121718, No Iterations 340
GPU: 356 iters: 4.41649 s: 107.85 GB/s
OGPUPCG:  Solving for pd, Initial residual = 0.00103534, Final residual = 4.92021e-05, No Iterations 356
GPU: 502 iters: 6.20997 s: 108.159 GB/s
OGPUPCG:  Solving for pd, Initial residual = 0.000328915, Final residual = 9.62961e-08, No Iterations 502
time step continuity errors : sum local = 4.43489e-12, global = -4.97615e-24, cumulative = -3.68833e-24
ExecutionTime = 560.09 s  ClockTime = 588 s

End

Finalising parallel run
