 Data for JOB [2804,1] offset 0

 ========================   JOB MAP   ========================

 Data for node: ivb106	Num slots: 6	Max slots: 0	Num procs: 6
 	Process OMPI jobid: [2804,1] App: 0 Process rank: 0
 	Process OMPI jobid: [2804,1] App: 0 Process rank: 1
 	Process OMPI jobid: [2804,1] App: 0 Process rank: 2
 	Process OMPI jobid: [2804,1] App: 0 Process rank: 3
 	Process OMPI jobid: [2804,1] App: 0 Process rank: 4
 	Process OMPI jobid: [2804,1] App: 0 Process rank: 5

 =============================================================
[ivb106:33126] MCW rank 3 bound to socket 0[core 3[hwt 0]]: [./././B/./././././.][./././././././././.]
[ivb106:33126] MCW rank 4 bound to socket 0[core 4[hwt 0]]: [././././B/././././.][./././././././././.]
[ivb106:33126] MCW rank 5 bound to socket 0[core 5[hwt 0]]: [./././././B/./././.][./././././././././.]
[ivb106:33126] MCW rank 0 bound to socket 0[core 0[hwt 0]]: [B/././././././././.][./././././././././.]
[ivb106:33126] MCW rank 1 bound to socket 0[core 1[hwt 0]]: [./B/./././././././.][./././././././././.]
[ivb106:33126] MCW rank 2 bound to socket 0[core 2[hwt 0]]: [././B/././././././.][./././././././././.]
0
2
1
3
4
5
/*---------------------------------------------------------------------------*\
| =========                 |                                                 |
| \\      /  F ield         | foam-extend: Open Source CFD                    |
|  \\    /   O peration     | Version:     3.1                                |
|   \\  /    A nd           | Web:         http://www.extend-project.de       |
|    \\/     M anipulation  |                                                 |
\*---------------------------------------------------------------------------*/
Build    : 3.1-e2da948002a2
Exec     : interFoam -parallel
Date     : May 19 2016
Time     : 18:09:50
Host     : ivb106
PID      : 33158
CtrlDict : /home-2/vplatonov/foam/foam-extend-3.1/etc/controlDict
Case     : /home/vplatonov/tests/rt12mln
nProcs   : 6
Slaves : 
5
(
ivb106.33175
ivb106.33169
ivb106.33181
ivb106.33192
ivb106.33187
)

Pstream initialized with:
    floatTransfer     : 0
    nProcsSimpleSum   : 0
    commsType         : blocking
SigFpe   : Enabling floating point exception trapping (FOAM_SIGFPE).

// * * * * * * * * * * * * * * * * * * * * * * * * * * * * * * * * * * * * * //
Create time

Create mesh for time = 0


Reading g
Reading field pd

Reading field alpha1

Reading field U

Reading/calculating face flux field phi

Reading transportProperties

Selecting incompressible transport model Newtonian
Selecting incompressible transport model Newtonian
Calculating field g.h

Selecting turbulence model type laminar
time step continuity errors : sum local = 0, global = 0, cumulative = 0
Created persistent data with name pcorr
OGPUPCG:  Solving for pcorr, Initial residual = 0, Final residual = 0, No Iterations 0
time step continuity errors : sum local = 0, global = 0, cumulative = 0
Courant Number mean: 0 max: 0 velocity magnitude: 0

Starting time loop

Courant Number mean: 0 max: 0 velocity magnitude: 0
Time = 0.001

MULES: Solving for alpha1
Liquid phase volume fraction = 0.00275421  Min(alpha1) = 0  Max(alpha1) = 1
MULES: Solving for alpha1
Liquid phase volume fraction = 0.00275421  Min(alpha1) = 0  Max(alpha1) = 1
Created persistent data with name pd
Computing AINV with droptol 0.02
GPU: 6 iters: 0.0611521 s: 87.5899 GB/s
OGPUPCG:  Solving for pd, Initial residual = 1, Final residual = 0.0430137, No Iterations 6
Computing AINV with droptol 0.02
GPU: 184 iters: 1.60455 s: 102.372 GB/s
OGPUPCG:  Solving for pd, Initial residual = 0.0260437, Final residual = 0.00128818, No Iterations 184
GPU: 910 iters: 7.82373 s: 103.834 GB/s
OGPUPCG:  Solving for pd, Initial residual = 0.00731534, Final residual = 9.65007e-08, No Iterations 910
time step continuity errors : sum local = 7.18011e-12, global = -3.12127e-24, cumulative = -3.12127e-24
ExecutionTime = 88.69 s  ClockTime = 104 s

Courant Number mean: 4.8166e-06 max: 0.00215792 velocity magnitude: 0.0337175
Time = 0.002

MULES: Solving for alpha1
Liquid phase volume fraction = 0.00275421  Min(alpha1) = 0  Max(alpha1) = 1
MULES: Solving for alpha1
Liquid phase volume fraction = 0.00275421  Min(alpha1) = 0  Max(alpha1) = 1
GPU: 679 iters: 5.82535 s: 104.055 GB/s
OGPUPCG:  Solving for pd, Initial residual = 0.00479165, Final residual = 0.00023326, No Iterations 679
GPU: 695 iters: 5.98893 s: 103.598 GB/s
OGPUPCG:  Solving for pd, Initial residual = 0.00394766, Final residual = 0.000194942, No Iterations 695
GPU: 956 iters: 8.2114 s: 103.933 GB/s
OGPUPCG:  Solving for pd, Initial residual = 0.00350065, Final residual = 9.89872e-08, No Iterations 956
time step continuity errors : sum local = 4.14672e-08, global = -4.14625e-08, cumulative = -4.14625e-08
ExecutionTime = 132.01 s  ClockTime = 148 s

Courant Number mean: 1.35477e-05 max: 0.221112 velocity magnitude: 1.72744
Time = 0.003

MULES: Solving for alpha1
Liquid phase volume fraction = 0.00275424  Min(alpha1) = -1.32371e-30  Max(alpha1) = 1
MULES: Solving for alpha1
Liquid phase volume fraction = 0.00275426  Min(alpha1) = -7.70204e-30  Max(alpha1) = 1
GPU: 696 iters: 5.98384 s: 103.835 GB/s
OGPUPCG:  Solving for pd, Initial residual = 0.00747995, Final residual = 0.000371831, No Iterations 696
GPU: 659 iters: 5.69617 s: 103.28 GB/s
OGPUPCG:  Solving for pd, Initial residual = 0.0052079, Final residual = 0.000258999, No Iterations 659
GPU: 933 iters: 8.02323 s: 103.812 GB/s
OGPUPCG:  Solving for pd, Initial residual = 0.00513804, Final residual = 9.87743e-08, No Iterations 933
time step continuity errors : sum local = 2.25753e-08, global = -2.25707e-08, cumulative = -6.40332e-08
ExecutionTime = 175.12 s  ClockTime = 191 s

Courant Number mean: 1.63363e-05 max: 0.133579 velocity magnitude: 1.04358
Time = 0.004

MULES: Solving for alpha1
Liquid phase volume fraction = 0.00275427  Min(alpha1) = -6.88028e-30  Max(alpha1) = 1
MULES: Solving for alpha1
Liquid phase volume fraction = 0.00275428  Min(alpha1) = -1.60759e-29  Max(alpha1) = 1
GPU: 695 iters: 5.98371 s: 103.688 GB/s
OGPUPCG:  Solving for pd, Initial residual = 0.0084946, Final residual = 0.000421317, No Iterations 695
GPU: 681 iters: 5.84382 s: 104.031 GB/s
OGPUPCG:  Solving for pd, Initial residual = 0.00720556, Final residual = 0.00035092, No Iterations 681
GPU: 960 iters: 8.26537 s: 103.687 GB/s
OGPUPCG:  Solving for pd, Initial residual = 0.00670268, Final residual = 9.85333e-08, No Iterations 960
time step continuity errors : sum local = 1.06655e-08, global = -1.06609e-08, cumulative = -7.46941e-08
ExecutionTime = 218.63 s  ClockTime = 235 s

Courant Number mean: 2.02726e-05 max: 0.0760191 velocity magnitude: 0.593899
Time = 0.005

MULES: Solving for alpha1
Liquid phase volume fraction = 0.00275429  Min(alpha1) = -7.61996e-30  Max(alpha1) = 1
MULES: Solving for alpha1
Liquid phase volume fraction = 0.00275429  Min(alpha1) = -8.54748e-30  Max(alpha1) = 1
GPU: 695 iters: 5.97746 s: 103.796 GB/s
OGPUPCG:  Solving for pd, Initial residual = 0.00674642, Final residual = 0.000328719, No Iterations 695
GPU: 657 iters: 5.63152 s: 104.149 GB/s
OGPUPCG:  Solving for pd, Initial residual = 0.00591085, Final residual = 0.000286012, No Iterations 657
GPU: 948 iters: 8.14975 s: 103.843 GB/s
OGPUPCG:  Solving for pd, Initial residual = 0.00570294, Final residual = 9.9217e-08, No Iterations 948
time step continuity errors : sum local = 2.48163e-09, global = -2.47696e-09, cumulative = -7.71711e-08
ExecutionTime = 261.74 s  ClockTime = 278 s

Courant Number mean: 2.43622e-05 max: 0.0288585 velocity magnitude: 0.303104
Time = 0.006

MULES: Solving for alpha1
Liquid phase volume fraction = 0.00275429  Min(alpha1) = -9.80178e-30  Max(alpha1) = 1
MULES: Solving for alpha1
Liquid phase volume fraction = 0.00275429  Min(alpha1) = -1.76392e-29  Max(alpha1) = 1
GPU: 698 iters: 6.00889 s: 103.699 GB/s
OGPUPCG:  Solving for pd, Initial residual = 0.00746922, Final residual = 0.000361992, No Iterations 698
GPU: 674 iters: 5.79527 s: 103.825 GB/s
OGPUPCG:  Solving for pd, Initial residual = 0.0056674, Final residual = 0.000278295, No Iterations 674
GPU: 949 iters: 8.14786 s: 103.977 GB/s
OGPUPCG:  Solving for pd, Initial residual = 0.0055969, Final residual = 9.77581e-08, No Iterations 949
time step continuity errors : sum local = 3.53087e-11, global = 3.07388e-11, cumulative = -7.71403e-08
ExecutionTime = 304.72 s  ClockTime = 322 s

Courant Number mean: 2.92834e-05 max: 0.0329532 velocity magnitude: 0.257447
Time = 0.007

MULES: Solving for alpha1
Liquid phase volume fraction = 0.00275429  Min(alpha1) = -3.13003e-29  Max(alpha1) = 1
MULES: Solving for alpha1
Liquid phase volume fraction = 0.00275429  Min(alpha1) = -2.73254e-29  Max(alpha1) = 1
GPU: 701 iters: 6.03585 s: 103.68 GB/s
OGPUPCG:  Solving for pd, Initial residual = 0.00717919, Final residual = 0.000354676, No Iterations 701
GPU: 645 iters: 5.54824 s: 103.781 GB/s
OGPUPCG:  Solving for pd, Initial residual = 0.00461391, Final residual = 0.000229543, No Iterations 645
GPU: 867 iters: 7.4615 s: 103.731 GB/s
OGPUPCG:  Solving for pd, Initial residual = 0.00419091, Final residual = 9.81516e-08, No Iterations 867
time step continuity errors : sum local = 1.46727e-10, global = 1.4214e-10, cumulative = -7.69982e-08
ExecutionTime = 346.92 s  ClockTime = 364 s

Courant Number mean: 3.43699e-05 max: 0.00923244 velocity magnitude: 0.130396
Time = 0.008

MULES: Solving for alpha1
Liquid phase volume fraction = 0.00275429  Min(alpha1) = -6.75935e-29  Max(alpha1) = 1
MULES: Solving for alpha1
Liquid phase volume fraction = 0.00275429  Min(alpha1) = -5.85444e-29  Max(alpha1) = 1
GPU: 704 iters: 6.06964 s: 103.544 GB/s
OGPUPCG:  Solving for pd, Initial residual = 0.00759955, Final residual = 0.000366892, No Iterations 704
GPU: 303 iters: 2.58658 s: 104.576 GB/s
OGPUPCG:  Solving for pd, Initial residual = 0.0044743, Final residual = 0.000223527, No Iterations 303
GPU: 828 iters: 7.12747 s: 103.707 GB/s
OGPUPCG:  Solving for pd, Initial residual = 0.00419635, Final residual = 9.96667e-08, No Iterations 828
time step continuity errors : sum local = 1.5728e-10, global = 1.52649e-10, cumulative = -7.68455e-08
ExecutionTime = 386.11 s  ClockTime = 404 s

Courant Number mean: 3.94773e-05 max: 0.00904201 velocity magnitude: 0.140308
Time = 0.009

MULES: Solving for alpha1
Liquid phase volume fraction = 0.00275429  Min(alpha1) = -4.73893e-29  Max(alpha1) = 1
MULES: Solving for alpha1
Liquid phase volume fraction = 0.00275429  Min(alpha1) = -3.85725e-29  Max(alpha1) = 1
GPU: 705 iters: 6.04857 s: 104.052 GB/s
OGPUPCG:  Solving for pd, Initial residual = 0.00747617, Final residual = 0.000373484, No Iterations 705
GPU: 312 iters: 2.68319 s: 103.805 GB/s
OGPUPCG:  Solving for pd, Initial residual = 0.00469423, Final residual = 0.000233813, No Iterations 312
GPU: 835 iters: 7.19649 s: 103.581 GB/s
OGPUPCG:  Solving for pd, Initial residual = 0.00416001, Final residual = 9.76935e-08, No Iterations 835
time step continuity errors : sum local = 6.45893e-12, global = 1.93215e-12, cumulative = -7.68436e-08
ExecutionTime = 425.63 s  ClockTime = 444 s

Courant Number mean: 4.4594e-05 max: 0.00972268 velocity magnitude: 0.149313
Time = 0.01

MULES: Solving for alpha1
Liquid phase volume fraction = 0.00275429  Min(alpha1) = -3.20364e-29  Max(alpha1) = 1
MULES: Solving for alpha1
Liquid phase volume fraction = 0.00275429  Min(alpha1) = -2.15937e-29  Max(alpha1) = 1
GPU: 706 iters: 6.10449 s: 103.245 GB/s
OGPUPCG:  Solving for pd, Initial residual = 0.00809337, Final residual = 0.000390283, No Iterations 706
GPU: 301 iters: 2.58595 s: 103.911 GB/s
OGPUPCG:  Solving for pd, Initial residual = 0.00466351, Final residual = 0.000231381, No Iterations 301
GPU: 829 iters: 7.12546 s: 103.862 GB/s
OGPUPCG:  Solving for pd, Initial residual = 0.00432455, Final residual = 9.73589e-08, No Iterations 829
time step continuity errors : sum local = 4.61552e-11, global = -4.16688e-11, cumulative = -7.68853e-08
ExecutionTime = 464.85 s  ClockTime = 483 s

End

Finalising parallel run
