 Data for JOB [2200,1] offset 0

 ========================   JOB MAP   ========================

 Data for node: ivb106	Num slots: 6	Max slots: 0	Num procs: 6
 	Process OMPI jobid: [2200,1] App: 0 Process rank: 0
 	Process OMPI jobid: [2200,1] App: 0 Process rank: 1
 	Process OMPI jobid: [2200,1] App: 0 Process rank: 2
 	Process OMPI jobid: [2200,1] App: 0 Process rank: 3
 	Process OMPI jobid: [2200,1] App: 0 Process rank: 4
 	Process OMPI jobid: [2200,1] App: 0 Process rank: 5

 =============================================================
[ivb106:33546] MCW rank 3 bound to socket 0[core 3[hwt 0]]: [./././B/./././././.][./././././././././.]
[ivb106:33546] MCW rank 4 bound to socket 0[core 4[hwt 0]]: [././././B/././././.][./././././././././.]
[ivb106:33546] MCW rank 5 bound to socket 0[core 5[hwt 0]]: [./././././B/./././.][./././././././././.]
[ivb106:33546] MCW rank 0 bound to socket 0[core 0[hwt 0]]: [B/././././././././.][./././././././././.]
[ivb106:33546] MCW rank 1 bound to socket 0[core 1[hwt 0]]: [./B/./././././././.][./././././././././.]
[ivb106:33546] MCW rank 2 bound to socket 0[core 2[hwt 0]]: [././B/././././././.][./././././././././.]
/*---------------------------------------------------------------------------*\
| =========                 |                                                 |
| \\      /  F ield         | foam-extend: Open Source CFD                    |
|  \\    /   O peration     | Version:     3.1                                |
|   \\  /    A nd           | Web:         http://www.extend-project.de       |
|    \\/     M anipulation  |                                                 |
\*---------------------------------------------------------------------------*/
Build    : 3.1-e2da948002a2
Exec     : interFoam -parallel
Date     : May 19 2016
Time     : 18:18:08
Host     : ivb106
PID      : 33599
CtrlDict : /home-2/vplatonov/foam/foam-extend-3.1/etc/controlDict
Case     : /home/vplatonov/tests/rt12mln
nProcs   : 6
Slaves : 
5
(
ivb106.33588
ivb106.33589
ivb106.33595
ivb106.33602
ivb106.33604
)

Pstream initialized with:
    floatTransfer     : 0
    nProcsSimpleSum   : 0
    commsType         : blocking
SigFpe   : Enabling floating point exception trapping (FOAM_SIGFPE).

// * * * * * * * * * * * * * * * * * * * * * * * * * * * * * * * * * * * * * //
Create time

Create mesh for time = 0


Reading g
Reading field pd

Reading field alpha1

Reading field U

Reading/calculating face flux field phi

Reading transportProperties

Selecting incompressible transport model Newtonian
Selecting incompressible transport model Newtonian
Calculating field g.h

Selecting turbulence model type laminar
time step continuity errors : sum local = 0, global = 0, cumulative = 0
Created persistent data with name pcorr
OGPUPCG:  Solving for pcorr, Initial residual = 0, Final residual = 0, No Iterations 0
time step continuity errors : sum local = 0, global = 0, cumulative = 0
Courant Number mean: 0 max: 0 velocity magnitude: 0

Starting time loop

Courant Number mean: 0 max: 0 velocity magnitude: 0
Time = 0.001

MULES: Solving for alpha1
Liquid phase volume fraction = 0.00275421  Min(alpha1) = 0  Max(alpha1) = 1
MULES: Solving for alpha1
Liquid phase volume fraction = 0.00275421  Min(alpha1) = 0  Max(alpha1) = 1
Created persistent data with name pd
Computing AINV with droptol 0.02
GPU: 6 iters: 0.0907102 s: 59.0162 GB/s
OGPUPCG:  Solving for pd, Initial residual = 1, Final residual = 0.0430137, No Iterations 6
Computing AINV with droptol 0.02
GPU: 184 iters: 2.38948 s: 68.7055 GB/s
OGPUPCG:  Solving for pd, Initial residual = 0.0260437, Final residual = 0.00128817, No Iterations 184
GPU: 910 iters: 11.7025 s: 69.3805 GB/s
OGPUPCG:  Solving for pd, Initial residual = 0.00731533, Final residual = 9.65178e-08, No Iterations 910
time step continuity errors : sum local = 7.18139e-12, global = -3.44139e-24, cumulative = -3.44139e-24
ExecutionTime = 93.57 s  ClockTime = 106 s

Courant Number mean: 4.8166e-06 max: 0.00215792 velocity magnitude: 0.0337175
Time = 0.002

MULES: Solving for alpha1
Liquid phase volume fraction = 0.00275421  Min(alpha1) = 0  Max(alpha1) = 1
MULES: Solving for alpha1
Liquid phase volume fraction = 0.00275421  Min(alpha1) = 0  Max(alpha1) = 1
GPU: 679 iters: 8.72084 s: 69.4684 GB/s
OGPUPCG:  Solving for pd, Initial residual = 0.00479165, Final residual = 0.000230066, No Iterations 679
GPU: 695 iters: 8.93666 s: 69.3882 GB/s
OGPUPCG:  Solving for pd, Initial residual = 0.00394443, Final residual = 0.000195836, No Iterations 695
GPU: 956 iters: 12.2418 s: 69.6766 GB/s
OGPUPCG:  Solving for pd, Initial residual = 0.00350141, Final residual = 9.8693e-08, No Iterations 956
time step continuity errors : sum local = 4.14672e-08, global = -4.14625e-08, cumulative = -4.14625e-08
ExecutionTime = 146.96 s  ClockTime = 160 s

Courant Number mean: 1.35477e-05 max: 0.221112 velocity magnitude: 1.72744
Time = 0.003

MULES: Solving for alpha1
Liquid phase volume fraction = 0.00275424  Min(alpha1) = -3.17872e-30  Max(alpha1) = 1
MULES: Solving for alpha1
Liquid phase volume fraction = 0.00275426  Min(alpha1) = -2.77545e-30  Max(alpha1) = 1
GPU: 696 iters: 8.92171 s: 69.6045 GB/s
OGPUPCG:  Solving for pd, Initial residual = 0.00747989, Final residual = 0.00036747, No Iterations 696
GPU: 659 iters: 8.47541 s: 69.3747 GB/s
OGPUPCG:  Solving for pd, Initial residual = 0.00520386, Final residual = 0.000258528, No Iterations 659
GPU: 933 iters: 11.9497 s: 69.6628 GB/s
OGPUPCG:  Solving for pd, Initial residual = 0.00513763, Final residual = 9.89676e-08, No Iterations 933
time step continuity errors : sum local = 2.25753e-08, global = -2.25707e-08, cumulative = -6.40332e-08
ExecutionTime = 199.92 s  ClockTime = 213 s

Courant Number mean: 1.63363e-05 max: 0.133579 velocity magnitude: 1.04358
Time = 0.004

MULES: Solving for alpha1
Liquid phase volume fraction = 0.00275427  Min(alpha1) = -4.94221e-30  Max(alpha1) = 1
MULES: Solving for alpha1
Liquid phase volume fraction = 0.00275428  Min(alpha1) = -2.14673e-29  Max(alpha1) = 1
GPU: 695 iters: 8.93555 s: 69.3968 GB/s
OGPUPCG:  Solving for pd, Initial residual = 0.00849459, Final residual = 0.000419971, No Iterations 695
GPU: 681 iters: 8.76 s: 69.3616 GB/s
OGPUPCG:  Solving for pd, Initial residual = 0.0072045, Final residual = 0.000348154, No Iterations 681
GPU: 960 iters: 12.363 s: 69.2822 GB/s
OGPUPCG:  Solving for pd, Initial residual = 0.00669941, Final residual = 9.82591e-08, No Iterations 960
time step continuity errors : sum local = 1.06655e-08, global = -1.06609e-08, cumulative = -7.46941e-08
ExecutionTime = 253.68 s  ClockTime = 267 s

Courant Number mean: 2.02726e-05 max: 0.0760191 velocity magnitude: 0.5939
Time = 0.005

MULES: Solving for alpha1
Liquid phase volume fraction = 0.00275429  Min(alpha1) = -8.13097e-30  Max(alpha1) = 1
MULES: Solving for alpha1
Liquid phase volume fraction = 0.00275429  Min(alpha1) = -1.07051e-29  Max(alpha1) = 1
GPU: 695 iters: 8.93659 s: 69.3887 GB/s
OGPUPCG:  Solving for pd, Initial residual = 0.00674598, Final residual = 0.000331757, No Iterations 695
GPU: 657 iters: 8.45101 s: 69.3638 GB/s
OGPUPCG:  Solving for pd, Initial residual = 0.00591475, Final residual = 0.00029266, No Iterations 657
GPU: 948 iters: 12.1866 s: 69.4068 GB/s
OGPUPCG:  Solving for pd, Initial residual = 0.00571119, Final residual = 9.88682e-08, No Iterations 948
time step continuity errors : sum local = 2.48161e-09, global = -2.47696e-09, cumulative = -7.71711e-08
ExecutionTime = 306.87 s  ClockTime = 320 s

Courant Number mean: 2.43622e-05 max: 0.0288585 velocity magnitude: 0.303104
Time = 0.006

MULES: Solving for alpha1
Liquid phase volume fraction = 0.00275429  Min(alpha1) = -2.26504e-29  Max(alpha1) = 1
MULES: Solving for alpha1
Liquid phase volume fraction = 0.00275429  Min(alpha1) = -2.2169e-29  Max(alpha1) = 1
GPU: 698 iters: 8.98201 s: 69.3358 GB/s
OGPUPCG:  Solving for pd, Initial residual = 0.00747003, Final residual = 0.00036802, No Iterations 698
GPU: 674 iters: 8.66191 s: 69.426 GB/s
OGPUPCG:  Solving for pd, Initial residual = 0.00567326, Final residual = 0.00027917, No Iterations 674
GPU: 949 iters: 12.2029 s: 69.387 GB/s
OGPUPCG:  Solving for pd, Initial residual = 0.00559851, Final residual = 9.76905e-08, No Iterations 949
time step continuity errors : sum local = 3.53063e-11, global = 3.07395e-11, cumulative = -7.71403e-08
ExecutionTime = 360.31 s  ClockTime = 373 s

Courant Number mean: 2.92834e-05 max: 0.0329532 velocity magnitude: 0.257447
Time = 0.007

MULES: Solving for alpha1
Liquid phase volume fraction = 0.00275429  Min(alpha1) = -3.08284e-29  Max(alpha1) = 1
MULES: Solving for alpha1
Liquid phase volume fraction = 0.00275429  Min(alpha1) = -5.67844e-29  Max(alpha1) = 1
GPU: 701 iters: 8.99309 s: 69.5481 GB/s
OGPUPCG:  Solving for pd, Initial residual = 0.00717964, Final residual = 0.000352212, No Iterations 701
GPU: 645 iters: 8.27315 s: 69.5608 GB/s
OGPUPCG:  Solving for pd, Initial residual = 0.00461142, Final residual = 0.000229428, No Iterations 645
GPU: 867 iters: 11.1336 s: 69.4801 GB/s
OGPUPCG:  Solving for pd, Initial residual = 0.00419045, Final residual = 9.88405e-08, No Iterations 867
time step continuity errors : sum local = 1.4676e-10, global = 1.42141e-10, cumulative = -7.69982e-08
ExecutionTime = 412.36 s  ClockTime = 425 s

Courant Number mean: 3.43699e-05 max: 0.00923245 velocity magnitude: 0.130396
Time = 0.008

MULES: Solving for alpha1
Liquid phase volume fraction = 0.00275429  Min(alpha1) = -5.61945e-29  Max(alpha1) = 1
MULES: Solving for alpha1
Liquid phase volume fraction = 0.00275429  Min(alpha1) = -3.64542e-29  Max(alpha1) = 1
GPU: 703 iters: 9.02983 s: 69.4627 GB/s
OGPUPCG:  Solving for pd, Initial residual = 0.00759926, Final residual = 0.000379703, No Iterations 703
GPU: 303 iters: 3.90491 s: 69.232 GB/s
OGPUPCG:  Solving for pd, Initial residual = 0.00448955, Final residual = 0.000223775, No Iterations 303
GPU: 828 iters: 10.6275 s: 69.5143 GB/s
OGPUPCG:  Solving for pd, Initial residual = 0.00419742, Final residual = 9.9755e-08, No Iterations 828
time step continuity errors : sum local = 1.57284e-10, global = 1.52649e-10, cumulative = -7.68455e-08
ExecutionTime = 459.7 s  ClockTime = 473 s

Courant Number mean: 3.94773e-05 max: 0.00904201 velocity magnitude: 0.140308
Time = 0.009

MULES: Solving for alpha1
Liquid phase volume fraction = 0.00275429  Min(alpha1) = -5.06961e-29  Max(alpha1) = 1
MULES: Solving for alpha1
Liquid phase volume fraction = 0.00275429  Min(alpha1) = -3.38963e-29  Max(alpha1) = 1
GPU: 706 iters: 9.06505 s: 69.4881 GB/s
OGPUPCG:  Solving for pd, Initial residual = 0.00747623, Final residual = 0.000367085, No Iterations 706
GPU: 311 iters: 4.01316 s: 69.1433 GB/s
OGPUPCG:  Solving for pd, Initial residual = 0.0046862, Final residual = 0.000233663, No Iterations 311
GPU: 834 iters: 10.716 s: 69.44 GB/s
OGPUPCG:  Solving for pd, Initial residual = 0.00415874, Final residual = 9.9555e-08, No Iterations 834
time step continuity errors : sum local = 6.5452e-12, global = 1.93215e-12, cumulative = -7.68436e-08
ExecutionTime = 507.16 s  ClockTime = 520 s

Courant Number mean: 4.4594e-05 max: 0.00972269 velocity magnitude: 0.149313
Time = 0.01

MULES: Solving for alpha1
Liquid phase volume fraction = 0.00275429  Min(alpha1) = -4.35281e-29  Max(alpha1) = 1
MULES: Solving for alpha1
Liquid phase volume fraction = 0.00275429  Min(alpha1) = -4.67292e-29  Max(alpha1) = 1
GPU: 706 iters: 9.0631 s: 69.5031 GB/s
OGPUPCG:  Solving for pd, Initial residual = 0.00809326, Final residual = 0.000389175, No Iterations 706
GPU: 301 iters: 3.87613 s: 69.2858 GB/s
OGPUPCG:  Solving for pd, Initial residual = 0.00466191, Final residual = 0.000231444, No Iterations 301
GPU: 829 iters: 10.682 s: 69.2435 GB/s
OGPUPCG:  Solving for pd, Initial residual = 0.00432473, Final residual = 9.80354e-08, No Iterations 829
time step continuity errors : sum local = 4.61864e-11, global = -4.16688e-11, cumulative = -7.68853e-08
ExecutionTime = 554.43 s  ClockTime = 568 s

End

Finalising parallel run
