 Data for JOB [37831,1] offset 0

 ========================   JOB MAP   ========================

 Data for node: ivb109	Num slots: 2	Max slots: 0	Num procs: 2
 	Process OMPI jobid: [37831,1] App: 0 Process rank: 0
 	Process OMPI jobid: [37831,1] App: 0 Process rank: 1

 Data for node: ivb110	Num slots: 2	Max slots: 0	Num procs: 2
 	Process OMPI jobid: [37831,1] App: 0 Process rank: 2
 	Process OMPI jobid: [37831,1] App: 0 Process rank: 3

 =============================================================
[ivb109:32295] MCW rank 0 bound to socket 0[core 0[hwt 0]]: [B/././././././././.][./././././././././.]
[ivb109:32295] MCW rank 1 bound to socket 0[core 1[hwt 0]]: [./B/./././././././.][./././././././././.]
[ivb110:03141] MCW rank 3 bound to socket 0[core 1[hwt 0]]: [./B/./././././././.][./././././././././.]
[ivb110:03141] MCW rank 2 bound to socket 0[core 0[hwt 0]]: [B/././././././././.][./././././././././.]
0
1
1
0
/*---------------------------------------------------------------------------*\
| =========                 |                                                 |
| \\      /  F ield         | foam-extend: Open Source CFD                    |
|  \\    /   O peration     | Version:     3.1                                |
|   \\  /    A nd           | Web:         http://www.extend-project.de       |
|    \\/     M anipulation  |                                                 |
\*---------------------------------------------------------------------------*/
Build    : 3.1-e2da948002a2
Exec     : interFoam -parallel
Date     : May 19 2016
Time     : 17:55:57
Host     : ivb109
PID      : 32325
CtrlDict : /home-2/vplatonov/foam/foam-extend-3.1/etc/controlDict
Case     : /home/vplatonov/tests/rt12mln
nProcs   : 4
Slaves : 
3
(
ivb109.32324
ivb110.3166
ivb110.3162
)

Pstream initialized with:
    floatTransfer     : 0
    nProcsSimpleSum   : 0
    commsType         : blocking
SigFpe   : Enabling floating point exception trapping (FOAM_SIGFPE).

// * * * * * * * * * * * * * * * * * * * * * * * * * * * * * * * * * * * * * //
Create time

Create mesh for time = 0


Reading g
Reading field pd

Reading field alpha1

Reading field U

Reading/calculating face flux field phi

Reading transportProperties

Selecting incompressible transport model Newtonian
Selecting incompressible transport model Newtonian
Calculating field g.h

Selecting turbulence model type laminar
time step continuity errors : sum local = 0, global = 0, cumulative = 0
Created persistent data with name pcorr
OGPUPCG:  Solving for pcorr, Initial residual = 0, Final residual = 0, No Iterations 0
time step continuity errors : sum local = 0, global = 0, cumulative = 0
Courant Number mean: 0 max: 0 velocity magnitude: 0

Starting time loop

Courant Number mean: 0 max: 0 velocity magnitude: 0
Time = 0.001

MULES: Solving for alpha1
Liquid phase volume fraction = 0.00275421  Min(alpha1) = 0  Max(alpha1) = 1
MULES: Solving for alpha1
Liquid phase volume fraction = 0.00275421  Min(alpha1) = 0  Max(alpha1) = 1
Created persistent data with name pd
Computing AINV with droptol 0.02
GPU: 6 iters: 0.0763034 s: 105.209 GB/s
OGPUPCG:  Solving for pd, Initial residual = 1, Final residual = 0.0426057, No Iterations 6
Computing AINV with droptol 0.02
GPU: 185 iters: 2.07335 s: 119.384 GB/s
OGPUPCG:  Solving for pd, Initial residual = 0.0257361, Final residual = 0.00127499, No Iterations 185
GPU: 909 iters: 9.86771 s: 123.252 GB/s
OGPUPCG:  Solving for pd, Initial residual = 0.00719054, Final residual = 9.64836e-08, No Iterations 909
time step continuity errors : sum local = 7.1789e-12, global = 4.05889e-25, cumulative = 4.05889e-25
ExecutionTime = 117.04 s  ClockTime = 125 s

Courant Number mean: 4.85427e-06 max: 0.00215706 velocity magnitude: 0.0337041
Time = 0.002

MULES: Solving for alpha1
Liquid phase volume fraction = 0.00275421  Min(alpha1) = 0  Max(alpha1) = 1
MULES: Solving for alpha1
Liquid phase volume fraction = 0.00275421  Min(alpha1) = 0  Max(alpha1) = 1
GPU: 179 iters: 1.97598 s: 121.204 GB/s
OGPUPCG:  Solving for pd, Initial residual = 0.00367726, Final residual = 0.000182407, No Iterations 179
GPU: 304 iters: 3.32813 s: 122.214 GB/s
OGPUPCG:  Solving for pd, Initial residual = 0.00220832, Final residual = 0.000109914, No Iterations 304
GPU: 873 iters: 9.50965 s: 122.828 GB/s
OGPUPCG:  Solving for pd, Initial residual = 0.00198509, Final residual = 9.74388e-08, No Iterations 873
time step continuity errors : sum local = 4.56765e-12, global = -2.40374e-25, cumulative = 1.65516e-25
ExecutionTime = 160.29 s  ClockTime = 168 s

Courant Number mean: 7.65155e-06 max: 0.00313128 velocity magnitude: 0.0489262
Time = 0.003

MULES: Solving for alpha1
Liquid phase volume fraction = 0.00275421  Min(alpha1) = -4.00524e-30  Max(alpha1) = 1
MULES: Solving for alpha1
Liquid phase volume fraction = 0.00275421  Min(alpha1) = -1.76784e-30  Max(alpha1) = 1
GPU: 339 iters: 3.69016 s: 122.914 GB/s
OGPUPCG:  Solving for pd, Initial residual = 0.00426125, Final residual = 0.000206501, No Iterations 339
GPU: 332 iters: 3.57876 s: 124.123 GB/s
OGPUPCG:  Solving for pd, Initial residual = 0.00314212, Final residual = 0.000147246, No Iterations 332
GPU: 799 iters: 8.71222 s: 122.706 GB/s
OGPUPCG:  Solving for pd, Initial residual = 0.00265593, Final residual = 9.85342e-08, No Iterations 799
time step continuity errors : sum local = 4.61805e-12, global = 1.56961e-24, cumulative = 1.73513e-24
ExecutionTime = 205.13 s  ClockTime = 213 s

Courant Number mean: 1.35467e-05 max: 0.00482415 velocity magnitude: 0.0753773
Time = 0.004

MULES: Solving for alpha1
Liquid phase volume fraction = 0.00275421  Min(alpha1) = -2.08722e-30  Max(alpha1) = 1
MULES: Solving for alpha1
Liquid phase volume fraction = 0.00275421  Min(alpha1) = -4.17371e-30  Max(alpha1) = 1
GPU: 332 iters: 3.63137 s: 122.325 GB/s
OGPUPCG:  Solving for pd, Initial residual = 0.0034433, Final residual = 0.000164551, No Iterations 332
GPU: 344 iters: 3.79193 s: 121.379 GB/s
OGPUPCG:  Solving for pd, Initial residual = 0.00326026, Final residual = 0.000154603, No Iterations 344
GPU: 862 iters: 9.42436 s: 122.378 GB/s
OGPUPCG:  Solving for pd, Initial residual = 0.00245733, Final residual = 9.87426e-08, No Iterations 862
time step continuity errors : sum local = 4.61007e-12, global = -6.28933e-25, cumulative = 1.1062e-24
ExecutionTime = 250.87 s  ClockTime = 259 s

Courant Number mean: 1.92214e-05 max: 0.00597454 velocity magnitude: 0.0933521
Time = 0.005

MULES: Solving for alpha1
Liquid phase volume fraction = 0.00275421  Min(alpha1) = -1.86132e-29  Max(alpha1) = 1
MULES: Solving for alpha1
Liquid phase volume fraction = 0.00275421  Min(alpha1) = -6.98006e-30  Max(alpha1) = 1
GPU: 340 iters: 3.71409 s: 122.482 GB/s
OGPUPCG:  Solving for pd, Initial residual = 0.00216668, Final residual = 0.000105354, No Iterations 340
GPU: 340 iters: 3.70867 s: 122.661 GB/s
OGPUPCG:  Solving for pd, Initial residual = 0.00181862, Final residual = 8.5809e-05, No Iterations 340
GPU: 855 iters: 9.21032 s: 124.205 GB/s
OGPUPCG:  Solving for pd, Initial residual = 0.00146786, Final residual = 9.79845e-08, No Iterations 855
time step continuity errors : sum local = 4.5658e-12, global = -1.71747e-24, cumulative = -6.11271e-25
ExecutionTime = 296.32 s  ClockTime = 305 s

Courant Number mean: 2.43612e-05 max: 0.00683424 velocity magnitude: 0.106785
Time = 0.006

MULES: Solving for alpha1
Liquid phase volume fraction = 0.00275421  Min(alpha1) = -1.58997e-29  Max(alpha1) = 1
MULES: Solving for alpha1
Liquid phase volume fraction = 0.00275421  Min(alpha1) = -1.43858e-29  Max(alpha1) = 1
GPU: 344 iters: 3.78981 s: 121.447 GB/s
OGPUPCG:  Solving for pd, Initial residual = 0.00226211, Final residual = 0.000109543, No Iterations 344
GPU: 352 iters: 3.86949 s: 121.713 GB/s
OGPUPCG:  Solving for pd, Initial residual = 0.00120655, Final residual = 5.88738e-05, No Iterations 352
GPU: 831 iters: 9.0736 s: 122.537 GB/s
OGPUPCG:  Solving for pd, Initial residual = 0.000719454, Final residual = 9.99293e-08, No Iterations 831
time step continuity errors : sum local = 4.64182e-12, global = 8.41493e-25, cumulative = 2.30221e-25
ExecutionTime = 341.86 s  ClockTime = 351 s

Courant Number mean: 2.94768e-05 max: 0.00763739 velocity magnitude: 0.119334
Time = 0.007

MULES: Solving for alpha1
Liquid phase volume fraction = 0.00275421  Min(alpha1) = -3.03585e-29  Max(alpha1) = 1
MULES: Solving for alpha1
Liquid phase volume fraction = 0.00275421  Min(alpha1) = -3.33776e-29  Max(alpha1) = 1
GPU: 343 iters: 3.7322 s: 122.963 GB/s
OGPUPCG:  Solving for pd, Initial residual = 0.00231549, Final residual = 0.000114098, No Iterations 343
GPU: 355 iters: 3.90604 s: 121.601 GB/s
OGPUPCG:  Solving for pd, Initial residual = 0.00111921, Final residual = 5.35793e-05, No Iterations 355
GPU: 509 iters: 5.56645 s: 122.345 GB/s
OGPUPCG:  Solving for pd, Initial residual = 0.000546807, Final residual = 9.73449e-08, No Iterations 509
time step continuity errors : sum local = 4.80398e-12, global = 1.37086e-23, cumulative = 1.39388e-23
ExecutionTime = 383.94 s  ClockTime = 393 s

Courant Number mean: 3.45977e-05 max: 0.00834498 velocity magnitude: 0.13039
Time = 0.008

MULES: Solving for alpha1
Liquid phase volume fraction = 0.00275421  Min(alpha1) = -6.03537e-29  Max(alpha1) = 1
MULES: Solving for alpha1
Liquid phase volume fraction = 0.00275421  Min(alpha1) = -5.64899e-29  Max(alpha1) = 1
GPU: 343 iters: 3.75282 s: 122.288 GB/s
OGPUPCG:  Solving for pd, Initial residual = 0.00235363, Final residual = 0.000112142, No Iterations 343
GPU: 355 iters: 3.7983 s: 125.051 GB/s
OGPUPCG:  Solving for pd, Initial residual = 0.0010888, Final residual = 5.32929e-05, No Iterations 355
GPU: 512 iters: 5.62041 s: 121.885 GB/s
OGPUPCG:  Solving for pd, Initial residual = 0.00045987, Final residual = 9.68652e-08, No Iterations 512
time step continuity errors : sum local = 4.94979e-12, global = -7.44818e-24, cumulative = 6.49065e-24
ExecutionTime = 425.86 s  ClockTime = 435 s

Courant Number mean: 3.97329e-05 max: 0.00904256 velocity magnitude: 0.140304
Time = 0.009

MULES: Solving for alpha1
Liquid phase volume fraction = 0.00275421  Min(alpha1) = -4.92085e-29  Max(alpha1) = 1
MULES: Solving for alpha1
Liquid phase volume fraction = 0.00275421  Min(alpha1) = -4.68195e-29  Max(alpha1) = 1
GPU: 341 iters: 3.71335 s: 122.867 GB/s
OGPUPCG:  Solving for pd, Initial residual = 0.00241357, Final residual = 0.000119029, No Iterations 341
GPU: 356 iters: 3.89247 s: 122.369 GB/s
OGPUPCG:  Solving for pd, Initial residual = 0.00105179, Final residual = 4.93191e-05, No Iterations 356
GPU: 503 iters: 5.46773 s: 123.086 GB/s
OGPUPCG:  Solving for pd, Initial residual = 0.000376315, Final residual = 9.94533e-08, No Iterations 503
time step continuity errors : sum local = 4.85567e-12, global = -5.20283e-24, cumulative = 1.28782e-24
ExecutionTime = 467.69 s  ClockTime = 477 s

Courant Number mean: 4.48873e-05 max: 0.00972324 velocity magnitude: 0.149309
Time = 0.01

MULES: Solving for alpha1
Liquid phase volume fraction = 0.00275421  Min(alpha1) = -5.53262e-29  Max(alpha1) = 1
MULES: Solving for alpha1
Liquid phase volume fraction = 0.00275421  Min(alpha1) = -3.41701e-29  Max(alpha1) = 1
GPU: 340 iters: 3.66079 s: 124.265 GB/s
OGPUPCG:  Solving for pd, Initial residual = 0.00257849, Final residual = 0.000121718, No Iterations 340
GPU: 356 iters: 3.83683 s: 124.144 GB/s
OGPUPCG:  Solving for pd, Initial residual = 0.00103534, Final residual = 4.92021e-05, No Iterations 356
GPU: 502 iters: 5.42553 s: 123.796 GB/s
OGPUPCG:  Solving for pd, Initial residual = 0.000328915, Final residual = 9.62961e-08, No Iterations 502
time step continuity errors : sum local = 4.43489e-12, global = -4.97615e-24, cumulative = -3.68833e-24
ExecutionTime = 508.11 s  ClockTime = 518 s

End

Finalising parallel run
