 Data for JOB [56558,1] offset 0

 ========================   JOB MAP   ========================

 Data for node: ivb100	Num slots: 2	Max slots: 0	Num procs: 2
 	Process OMPI jobid: [56558,1] App: 0 Process rank: 0
 	Process OMPI jobid: [56558,1] App: 0 Process rank: 1

 Data for node: ivb103	Num slots: 2	Max slots: 0	Num procs: 2
 	Process OMPI jobid: [56558,1] App: 0 Process rank: 2
 	Process OMPI jobid: [56558,1] App: 0 Process rank: 3

 Data for node: ivb104	Num slots: 2	Max slots: 0	Num procs: 2
 	Process OMPI jobid: [56558,1] App: 0 Process rank: 4
 	Process OMPI jobid: [56558,1] App: 0 Process rank: 5

 Data for node: ivb105	Num slots: 2	Max slots: 0	Num procs: 2
 	Process OMPI jobid: [56558,1] App: 0 Process rank: 6
 	Process OMPI jobid: [56558,1] App: 0 Process rank: 7

 =============================================================
[ivb100:36587] MCW rank 0 bound to socket 0[core 0[hwt 0]]: [B/././././././././.][./././././././././.]
[ivb100:36587] MCW rank 1 bound to socket 0[core 1[hwt 0]]: [./B/./././././././.][./././././././././.]
[ivb103:29060] MCW rank 2 bound to socket 0[core 0[hwt 0]]: [B/././././././././.][./././././././././.]
[ivb103:29060] MCW rank 3 bound to socket 0[core 1[hwt 0]]: [./B/./././././././.][./././././././././.]
[ivb104:29308] MCW rank 5 bound to socket 0[core 1[hwt 0]]: [./B/./././././././.][./././././././././.]
[ivb104:29308] MCW rank 4 bound to socket 0[core 0[hwt 0]]: [B/././././././././.][./././././././././.]
[ivb105:15929] MCW rank 6 bound to socket 0[core 0[hwt 0]]: [B/././././././././.][./././././././././.]
[ivb105:15929] MCW rank 7 bound to socket 0[core 1[hwt 0]]: [./B/./././././././.][./././././././././.]
0
1
0
1
0
0
1
1
/*---------------------------------------------------------------------------*\
| =========                 |                                                 |
| \\      /  F ield         | foam-extend: Open Source CFD                    |
|  \\    /   O peration     | Version:     3.1                                |
|   \\  /    A nd           | Web:         http://www.extend-project.de       |
|    \\/     M anipulation  |                                                 |
\*---------------------------------------------------------------------------*/
Build    : 3.1-e2da948002a2
Exec     : pimpleDyMFoam -parallel
Date     : May 25 2016
Time     : 10:37:20
Host     : ivb100
PID      : 36625
CtrlDict : /home-2/vplatonov/foam/foam-extend-3.1/etc/controlDict
Case     : /home/vplatonov/tests/screwPump-8mln
nProcs   : 8
Slaves : 
7
(
ivb100.36627
ivb103.29084
ivb103.29083
ivb104.29331
ivb104.29332
ivb105.15959
ivb105.15960
)

Pstream initialized with:
    floatTransfer     : 0
    nProcsSimpleSum   : 0
    commsType         : blocking
SigFpe   : Enabling floating point exception trapping (FOAM_SIGFPE).

// * * * * * * * * * * * * * * * * * * * * * * * * * * * * * * * * * * * * * //
Create time

Create dynamic mesh for time = 0

Selecting dynamicFvMesh mixerGgiFvMesh
Initializing the GGI interpolator between master/shadow patches: stator-slider/rotor-slider
void mixerGgiFvMesh::addZonesAndModifiers() : Zones and modifiers already present.  Skipping.
Mixer mesh:
    origin: (0 0 0)
    axis  : (0 1 0)
    rpm   : 2000
Reading field p

Reading field U

Reading/calculating face flux field phi

Selecting incompressible transport model Newtonian
Selecting turbulence model type LESModel
Selecting LES turbulence model Smagorinsky
SmagorinskyCoeffs
{
    ce              1.048;
    ck              0.094;
}

Reading field rAU if present


Starting time loop

Courant Number mean: 0 max: 0 velocity magnitude: 0
Creating ggi check function object
Time = 1e-06

volume continuity errors : volume = 0.4378, max error = 5.3993e-07, sum local = 9.49986e-15, global = -2.89628e-18
smoothSolver:  Solving for Ux, Initial residual = 1, Final residual = 4.04307e-08, No Iterations 1
smoothSolver:  Solving for Uy, Initial residual = 1, Final residual = 2.73207e-08, No Iterations 1
smoothSolver:  Solving for Uz, Initial residual = 1, Final residual = 4.13995e-08, No Iterations 1
[2] Building level 0
[3] Building level 0
[6] Building level 0
[7] Building level 0
[5] Building level 0
[4] Building level 0
[1] Building level 0
Created persistent data with name p
[0] Building level 0
[7] Building level 1
[4] Building level 1
[2] Building level 1
[6] Building level 1
[3] Building level 1
[1] Building level 1
Creating AMGLevel 
[5] Building level 1
[0] Building level 1
[7] Building level 2
[6] Building level 2
[4] Building level 2
Creating AMGLevel 
[2] Building level 2
[3] Building level 2
[0] Building level 2
[5] Building level 2
[1] Building level 2
[7] Building level 3
Creating AMGLevel 
[6] Building level 3
[0] Building level 3
[4] Building level 3
[3] Building level 3
[2] Building level 3
[5] Building level 3
[1] Building level 3
[7] Building level 4
Creating AMGLevel 
[0] Building level 4
[4] Building level 4
[6] Building level 4
[3] Building level 4
[2] Building level 4
[5] Building level 4
[1] Building level 4
[7] Building level 5
Creating AMGLevel 
[0] Building level 5
[4] Building level 5
[6] Building level 5
[3] Building level 5
Creating AMGLevel 
[0] Building level 6
[7] Building level 6
[2] Building level 5
[5] Building level 5
[4] Building level 6
Creating AMGLevel 
[6] Building level 6
[0] Building level 7
[1] Building level 5
[7] Building level 7
Creating AMGLevel 
[0] Building level 8
[4] Building level 7
Creating AMGLevel 
[0] Building level 9
[7] Building level 8
[3] Building level 6
Creating AMGLevel 
[0] Building level 10
[6] Building level 7
Creating AMGLevel 
[0] Building level 11
[2] Building level 6
Creating AMGLevel 
[0] Building level 12
[7] Building level 9
[4] Building level 8
Creating AMGLevel 
12 Level construction complete
[5] Building level 6
[7] Building level 10
[4] Building level 9
[6] Building level 8
[7] Building level 11
[4] Building level 10
[7] Building level 12
[4] Building level 11
[1] Building level 6
[4] Building level 12
[3] Building level 7
[6] Building level 9
[2] Building level 7
[6] Building level 10
[6] Building level 11
[5] Building level 7
[6] Building level 12
[3] Building level 8
[2] Building level 8
[1] Building level 7
[3] Building level 9
[5] Building level 8
[2] Building level 9
[3] Building level 10
[3] Building level 11
[2] Building level 10
[5] Building level 9
[3] Building level 12
[2] Building level 11
[1] Building level 8
[5] Building level 10
[2] Building level 12
[5] Building level 11
[5] Building level 12
[1] Building level 9
[1] Building level 10
[1] Building level 11
[1] Building level 12
GMRES:  Solving for topLevelCorr, Initial residual = 0.877663, Final residual = 0.889966, No Iterations 200
GPU: 25 iters: 6.2636 s: 0.865159 GB/s
PCGAMG:  Solving for p, Initial residual = 1, Final residual = 0.000990654, No Iterations 25
slurmstepd: *** JOB 7747 ON ivb100 CANCELLED AT 2016-05-25T10:54:27 DUE TO TIME LIMIT ***
