 Data for JOB [4600,1] offset 0

 ========================   JOB MAP   ========================

 Data for node: ivb110	Num slots: 3	Max slots: 0	Num procs: 3
 	Process OMPI jobid: [4600,1] App: 0 Process rank: 0
 	Process OMPI jobid: [4600,1] App: 0 Process rank: 1
 	Process OMPI jobid: [4600,1] App: 0 Process rank: 2

 Data for node: ivb111	Num slots: 3	Max slots: 0	Num procs: 3
 	Process OMPI jobid: [4600,1] App: 0 Process rank: 3
 	Process OMPI jobid: [4600,1] App: 0 Process rank: 4
 	Process OMPI jobid: [4600,1] App: 0 Process rank: 5

 =============================================================
[ivb110:36736] MCW rank 0 bound to socket 0[core 0[hwt 0]]: [B/././././././././.][./././././././././.]
[ivb110:36736] MCW rank 1 bound to socket 0[core 1[hwt 0]]: [./B/./././././././.][./././././././././.]
[ivb110:36736] MCW rank 2 bound to socket 0[core 2[hwt 0]]: [././B/././././././.][./././././././././.]
[ivb111:10070] MCW rank 3 bound to socket 0[core 0[hwt 0]]: [B/././././././././.][./././././././././.]
[ivb111:10070] MCW rank 4 bound to socket 0[core 1[hwt 0]]: [./B/./././././././.][./././././././././.]
[ivb111:10070] MCW rank 5 bound to socket 0[core 2[hwt 0]]: [././B/././././././.][./././././././././.]
0
1
2
0
2
1
/*---------------------------------------------------------------------------*\
| =========                 |                                                 |
| \\      /  F ield         | foam-extend: Open Source CFD                    |
|  \\    /   O peration     | Version:     3.1                                |
|   \\  /    A nd           | Web:         http://www.extend-project.de       |
|    \\/     M anipulation  |                                                 |
\*---------------------------------------------------------------------------*/
Build    : 3.1-e2da948002a2
Exec     : interFoam -parallel
Date     : May 17 2016
Time     : 11:17:14
Host     : ivb110
PID      : 36771
CtrlDict : /home-2/vplatonov/foam/foam-extend-3.1/etc/controlDict
Case     : /home/vplatonov/tests/rt12mln
nProcs   : 6
Slaves : 
5
(
ivb110.36770
ivb110.36776
ivb111.10097
ivb111.10099
ivb111.10104
)

Pstream initialized with:
    floatTransfer     : 0
    nProcsSimpleSum   : 0
    commsType         : blocking
SigFpe   : Enabling floating point exception trapping (FOAM_SIGFPE).

// * * * * * * * * * * * * * * * * * * * * * * * * * * * * * * * * * * * * * //
Create time

Create mesh for time = 0


Reading g
Reading field pd

Reading field alpha1

Reading field U

Reading/calculating face flux field phi

Reading transportProperties

Selecting incompressible transport model Newtonian
Selecting incompressible transport model Newtonian
Calculating field g.h

Selecting turbulence model type laminar
time step continuity errors : sum local = 0, global = 0, cumulative = 0
Created persistent data with name pcorr
OGPUBICGS:  Solving for pcorr, Initial residual = 0, Final residual = 0, No Iterations 0
time step continuity errors : sum local = 0, global = 0, cumulative = 0
Courant Number mean: 0 max: 0 velocity magnitude: 0

Starting time loop

Courant Number mean: 0 max: 0 velocity magnitude: 0
Time = 0.001

MULES: Solving for alpha1
Liquid phase volume fraction = 0.00275421  Min(alpha1) = 0  Max(alpha1) = 1
MULES: Solving for alpha1
Liquid phase volume fraction = 0.00275421  Min(alpha1) = 0  Max(alpha1) = 1
Created persistent data with name pd
Computing AINV with droptol 0.02
GPU: 1 iters: 0.060175 s: 15.649 GB/s
Total exec time 0.060175 Total comm time 0.00332758
OGPUBICGS:  Solving for pd, Initial residual = 1, Final residual = 0.0487452, No Iterations 1
Computing AINV with droptol 0.02
GPU: 26 iters: 0.77732 s: 31.4976 GB/s
Total exec time 0.837495 Total comm time 0.0735791
OGPUBICGS:  Solving for pd, Initial residual = 0.0329437, Final residual = 0.00159096, No Iterations 26
GPU: 577 iters: 16.6448 s: 32.6438 GB/s
Total exec time 17.4823 Total comm time 1.61831
OGPUBICGS:  Solving for pd, Initial residual = 0.0128911, Final residual = 5.02625e-08, No Iterations 577
time step continuity errors : sum local = 4.87873e-12, global = -5.49841e-24, cumulative = -5.49841e-24
ExecutionTime = 62.5 s  ClockTime = 74 s

Courant Number mean: 4.82197e-06 max: 0.00215159 velocity magnitude: 0.0336186
Time = 0.002

MULES: Solving for alpha1
Liquid phase volume fraction = 0.00275421  Min(alpha1) = 0  Max(alpha1) = 1
MULES: Solving for alpha1
Liquid phase volume fraction = 0.00275421  Min(alpha1) = 0  Max(alpha1) = 1
GPU: 480 iters: 13.8286 s: 32.6863 GB/s
Total exec time 31.3109 Total comm time 2.8877
OGPUBICGS:  Solving for pd, Initial residual = 0.00503788, Final residual = 0.000216325, No Iterations 480
GPU: 558 iters: 16.113 s: 32.6107 GB/s
Total exec time 47.424 Total comm time 4.37591
OGPUBICGS:  Solving for pd, Initial residual = 0.00391198, Final residual = 0.000146828, No Iterations 558
GPU: 671 iters: 19.397 s: 32.5756 GB/s
Total exec time 66.8209 Total comm time 6.20638
OGPUBICGS:  Solving for pd, Initial residual = 0.00343488, Final residual = 5.66648e-08, No Iterations 671
time step continuity errors : sum local = 4.11117e-08, global = -4.11108e-08, cumulative = -4.11108e-08
ExecutionTime = 131.91 s  ClockTime = 144 s

Courant Number mean: 1.34982e-05 max: 0.219629 velocity magnitude: 1.71585
Time = 0.003

MULES: Solving for alpha1
Liquid phase volume fraction = 0.00275424  Min(alpha1) = -1.08587e-30  Max(alpha1) = 1
MULES: Solving for alpha1
Liquid phase volume fraction = 0.00275426  Min(alpha1) = -6.58406e-30  Max(alpha1) = 1
GPU: 485 iters: 13.9964 s: 32.631 GB/s
Total exec time 80.8173 Total comm time 7.48686
OGPUBICGS:  Solving for pd, Initial residual = 0.00741023, Final residual = 0.000262198, No Iterations 485
GPU: 485 iters: 14.0169 s: 32.5832 GB/s
Total exec time 94.8342 Total comm time 8.78893
OGPUBICGS:  Solving for pd, Initial residual = 0.0050897, Final residual = 0.000201889, No Iterations 485
GPU: 621 iters: 17.9938 s: 32.4991 GB/s
Total exec time 112.828 Total comm time 10.5115
OGPUBICGS:  Solving for pd, Initial residual = 0.00508485, Final residual = 8.33338e-08, No Iterations 621
time step continuity errors : sum local = 2.22696e-08, global = -2.22628e-08, cumulative = -6.33736e-08
ExecutionTime = 198.16 s  ClockTime = 210 s

Courant Number mean: 1.6298e-05 max: 0.132156 velocity magnitude: 1.03247
Time = 0.004

MULES: Solving for alpha1
Liquid phase volume fraction = 0.00275427  Min(alpha1) = -3.91431e-30  Max(alpha1) = 1
MULES: Solving for alpha1
Liquid phase volume fraction = 0.00275428  Min(alpha1) = -8.19429e-30  Max(alpha1) = 1
GPU: 517 iters: 14.9032 s: 32.6675 GB/s
Total exec time 127.731 Total comm time 11.8634
OGPUBICGS:  Solving for pd, Initial residual = 0.00845327, Final residual = 0.00025217, No Iterations 517
GPU: 135 iters: 3.91105 s: 32.5046 GB/s
Total exec time 131.642 Total comm time 12.2157
OGPUBICGS:  Solving for pd, Initial residual = 0.00707292, Final residual = 0.00035298, No Iterations 135
GPU: 647 iters: 18.6614 s: 32.6486 GB/s
Total exec time 150.304 Total comm time 13.9388
OGPUBICGS:  Solving for pd, Initial residual = 0.00677213, Final residual = 8.33016e-08, No Iterations 647
time step continuity errors : sum local = 1.05139e-08, global = -1.05138e-08, cumulative = -7.38874e-08
ExecutionTime = 255.99 s  ClockTime = 269 s

Courant Number mean: 2.02597e-05 max: 0.0747001 velocity magnitude: 0.583595
Time = 0.005

MULES: Solving for alpha1
Liquid phase volume fraction = 0.00275429  Min(alpha1) = -1.2489e-29  Max(alpha1) = 1
MULES: Solving for alpha1
Liquid phase volume fraction = 0.00275429  Min(alpha1) = -1.91675e-29  Max(alpha1) = 1
GPU: 547 iters: 15.8276 s: 32.5444 GB/s
Total exec time 166.131 Total comm time 15.4083
OGPUBICGS:  Solving for pd, Initial residual = 0.00674507, Final residual = 0.000252, No Iterations 547
GPU: 465 iters: 13.4285 s: 32.6085 GB/s
Total exec time 179.56 Total comm time 16.6555
OGPUBICGS:  Solving for pd, Initial residual = 0.00576487, Final residual = 0.000188572, No Iterations 465
GPU: 731 iters: 21.0951 s: 32.6317 GB/s
Total exec time 200.655 Total comm time 18.6009
OGPUBICGS:  Solving for pd, Initial residual = 0.00560626, Final residual = 3.58721e-08, No Iterations 731
time step continuity errors : sum local = 2.47751e-09, global = -2.47615e-09, cumulative = -7.63635e-08
ExecutionTime = 326.57 s  ClockTime = 340 s

Courant Number mean: 2.43692e-05 max: 0.0288382 velocity magnitude: 0.295129
Time = 0.006

MULES: Solving for alpha1
Liquid phase volume fraction = 0.00275429  Min(alpha1) = -3.07758e-29  Max(alpha1) = 1
MULES: Solving for alpha1
Liquid phase volume fraction = 0.00275429  Min(alpha1) = -3.21461e-29  Max(alpha1) = 1
GPU: 535 iters: 15.4498 s: 32.6088 GB/s
Total exec time 216.105 Total comm time 20.0359
OGPUBICGS:  Solving for pd, Initial residual = 0.00747609, Final residual = 0.000289246, No Iterations 535
GPU: 421 iters: 12.1489 s: 32.6324 GB/s
Total exec time 228.254 Total comm time 21.1406
OGPUBICGS:  Solving for pd, Initial residual = 0.00564904, Final residual = 0.000260099, No Iterations 421
GPU: 574 iters: 16.5533 s: 32.6536 GB/s
Total exec time 244.807 Total comm time 22.6426
OGPUBICGS:  Solving for pd, Initial residual = 0.00559928, Final residual = 8.67487e-08, No Iterations 574
time step continuity errors : sum local = 1.44451e-11, global = 9.38325e-12, cumulative = -7.63541e-08
ExecutionTime = 390.98 s  ClockTime = 405 s

Courant Number mean: 2.92889e-05 max: 0.0309149 velocity magnitude: 0.241523
Time = 0.007

MULES: Solving for alpha1
Liquid phase volume fraction = 0.00275429  Min(alpha1) = -6.92595e-29  Max(alpha1) = 1
MULES: Solving for alpha1
Liquid phase volume fraction = 0.00275429  Min(alpha1) = -5.57505e-29  Max(alpha1) = 1
GPU: 480 iters: 13.8587 s: 32.6154 GB/s
Total exec time 258.665 Total comm time 23.9247
OGPUBICGS:  Solving for pd, Initial residual = 0.00718581, Final residual = 0.000339321, No Iterations 480
GPU: 465 iters: 13.414 s: 32.6436 GB/s
Total exec time 272.079 Total comm time 25.1721
OGPUBICGS:  Solving for pd, Initial residual = 0.00474638, Final residual = 0.000210833, No Iterations 465
GPU: 606 iters: 17.4801 s: 32.6462 GB/s
Total exec time 289.56 Total comm time 26.7709
OGPUBICGS:  Solving for pd, Initial residual = 0.00426522, Final residual = 1.49815e-08, No Iterations 606
time step continuity errors : sum local = 1.4222e-10, global = 1.40937e-10, cumulative = -7.62132e-08
ExecutionTime = 455.97 s  ClockTime = 470 s

Courant Number mean: 3.43782e-05 max: 0.011127 velocity magnitude: 0.130265
Time = 0.008

MULES: Solving for alpha1
Liquid phase volume fraction = 0.00275429  Min(alpha1) = -4.4081e-29  Max(alpha1) = 1
MULES: Solving for alpha1
Liquid phase volume fraction = 0.00275429  Min(alpha1) = -3.23866e-29  Max(alpha1) = 1
GPU: 516 iters: 14.8729 s: 32.6708 GB/s
Total exec time 304.432 Total comm time 28.1145
OGPUBICGS:  Solving for pd, Initial residual = 0.00761837, Final residual = 0.000355672, No Iterations 516
GPU: 483 iters: 13.9513 s: 32.6014 GB/s
Total exec time 318.384 Total comm time 29.3636
OGPUBICGS:  Solving for pd, Initial residual = 0.00456367, Final residual = 2.99352e-05, No Iterations 483
GPU: 613 iters: 17.6599 s: 32.687 GB/s
Total exec time 336.044 Total comm time 30.9513
OGPUBICGS:  Solving for pd, Initial residual = 0.00406918, Final residual = 9.29191e-08, No Iterations 613
time step continuity errors : sum local = 1.58417e-10, global = 1.56214e-10, cumulative = -7.6057e-08
ExecutionTime = 522.67 s  ClockTime = 537 s

Courant Number mean: 3.94852e-05 max: 0.00902694 velocity magnitude: 0.140182
Time = 0.009

MULES: Solving for alpha1
Liquid phase volume fraction = 0.00275429  Min(alpha1) = -3.27636e-29  Max(alpha1) = 1
MULES: Solving for alpha1
Liquid phase volume fraction = 0.00275429  Min(alpha1) = -4.10296e-29  Max(alpha1) = 1
GPU: 516 iters: 14.9032 s: 32.6042 GB/s
Total exec time 350.947 Total comm time 32.3046
OGPUBICGS:  Solving for pd, Initial residual = 0.00743665, Final residual = 0.000303663, No Iterations 516
GPU: 455 iters: 13.1965 s: 32.468 GB/s
Total exec time 364.143 Total comm time 33.5415
OGPUBICGS:  Solving for pd, Initial residual = 0.0047108, Final residual = 0.000158737, No Iterations 455
GPU: 568 iters: 16.4244 s: 32.5659 GB/s
Total exec time 380.568 Total comm time 35.0279
OGPUBICGS:  Solving for pd, Initial residual = 0.0042095, Final residual = 6.90075e-09, No Iterations 568
time step continuity errors : sum local = 3.10938e-12, global = 2.65001e-12, cumulative = -7.60543e-08
ExecutionTime = 587.51 s  ClockTime = 603 s

Courant Number mean: 4.46019e-05 max: 0.00970773 velocity magnitude: 0.149191
Time = 0.01

MULES: Solving for alpha1
Liquid phase volume fraction = 0.00275429  Min(alpha1) = -5.18547e-29  Max(alpha1) = 1
MULES: Solving for alpha1
Liquid phase volume fraction = 0.00275429  Min(alpha1) = -3.23009e-29  Max(alpha1) = 1
GPU: 492 iters: 14.2434 s: 32.5279 GB/s
Total exec time 394.811 Total comm time 36.3393
OGPUBICGS:  Solving for pd, Initial residual = 0.00801385, Final residual = 0.000304031, No Iterations 492
Computing AINV with droptol 0.02
GPU: 519 iters: 14.5249 s: 33.648 GB/s
Total exec time 409.336 Total comm time 37.2451
OGPUBICGS:  Solving for pd, Initial residual = 0.00456433, Final residual = 0.000198726, No Iterations 519
GPU: 616 iters: 17.7798 s: 32.6256 GB/s
Total exec time 427.116 Total comm time 38.8441
OGPUBICGS:  Solving for pd, Initial residual = 0.00428056, Final residual = 7.96171e-08, No Iterations 616
time step continuity errors : sum local = 4.70119e-11, global = -4.21429e-11, cumulative = -7.60965e-08
ExecutionTime = 654.92 s  ClockTime = 670 s

End

Finalising parallel run
