 Data for JOB [4099,1] offset 0

 ========================   JOB MAP   ========================

 Data for node: ivb108	Num slots: 4	Max slots: 0	Num procs: 4
 	Process OMPI jobid: [4099,1] App: 0 Process rank: 0
 	Process OMPI jobid: [4099,1] App: 0 Process rank: 1
 	Process OMPI jobid: [4099,1] App: 0 Process rank: 2
 	Process OMPI jobid: [4099,1] App: 0 Process rank: 3

 =============================================================
[ivb108:08710] MCW rank 2 bound to socket 0[core 2[hwt 0]]: [././B/././././././.][./././././././././.]
[ivb108:08710] MCW rank 3 bound to socket 0[core 3[hwt 0]]: [./././B/./././././.][./././././././././.]
[ivb108:08710] MCW rank 0 bound to socket 0[core 0[hwt 0]]: [B/././././././././.][./././././././././.]
[ivb108:08710] MCW rank 1 bound to socket 0[core 1[hwt 0]]: [./B/./././././././.][./././././././././.]
/*---------------------------------------------------------------------------*\
| =========                 |                                                 |
| \\      /  F ield         | foam-extend: Open Source CFD                    |
|  \\    /   O peration     | Version:     3.1                                |
|   \\  /    A nd           | Web:         http://www.extend-project.de       |
|    \\/     M anipulation  |                                                 |
\*---------------------------------------------------------------------------*/
Build    : 3.1-e2da948002a2
Exec     : interFoam -parallel
Date     : May 17 2016
Time     : 16:38:57
Host     : ivb108
PID      : 8747
CtrlDict : /home-2/vplatonov/foam/foam-extend-3.1/etc/controlDict
Case     : /home/vplatonov/tests/rt12mln
nProcs   : 4
Slaves : 
3
(
ivb108.8751
ivb108.8744
ivb108.8742
)

Pstream initialized with:
    floatTransfer     : 0
    nProcsSimpleSum   : 0
    commsType         : blocking
SigFpe   : Enabling floating point exception trapping (FOAM_SIGFPE).

// * * * * * * * * * * * * * * * * * * * * * * * * * * * * * * * * * * * * * //
Create time

Create mesh for time = 0


Reading g
Reading field pd

Reading field alpha1

Reading field U

Reading/calculating face flux field phi

Reading transportProperties

Selecting incompressible transport model Newtonian
Selecting incompressible transport model Newtonian
Calculating field g.h

Selecting turbulence model type laminar
time step continuity errors : sum local = 0, global = 0, cumulative = 0
Created persistent data with name pcorr
GPUBICGS:  Solving for pcorr, Initial residual = 0, Final residual = 0, No Iterations 0
time step continuity errors : sum local = 0, global = 0, cumulative = 0
Courant Number mean: 0 max: 0 velocity magnitude: 0

Starting time loop

Courant Number mean: 0 max: 0 velocity magnitude: 0
Time = 0.001

MULES: Solving for alpha1
Liquid phase volume fraction = 0.00275421  Min(alpha1) = 0  Max(alpha1) = 1
MULES: Solving for alpha1
Liquid phase volume fraction = 0.00275421  Min(alpha1) = 0  Max(alpha1) = 1
Created persistent data with name pd
Computing AINV with droptol 0.02
GPU: 2 iters: 0.0867045 s: 30.8628 GB/s
Total exec time 0.0867045
 Total comm time 0.00664554Pre time 0.000201728 Post time 0.00644381
GPUBICGS:  Solving for pd, Initial residual = 1, Final residual = 0.048381, No Iterations 2
Computing AINV with droptol 0.02
GPU: 30 iters: 0.982476 s: 40.8551 GB/s
Total exec time 1.06918
 Total comm time 0.0576892Pre time 0.00174525 Post time 0.0559439
GPUBICGS:  Solving for pd, Initial residual = 0.0328058, Final residual = 0.00134775, No Iterations 30
GPU: 621 iters: 19.9004 s: 41.7519 GB/s
Total exec time 20.9696
 Total comm time 1.1033Pre time 0.0434206 Post time 1.05988
GPUBICGS:  Solving for pd, Initial residual = 0.0125474, Final residual = 8.44542e-08, No Iterations 621
time step continuity errors : sum local = 7.39783e-12, global = -1.35661e-24, cumulative = -1.35661e-24
ExecutionTime = 134.39 s  ClockTime = 149 s

Courant Number mean: 4.85833e-06 max: 0.00215161 velocity magnitude: 0.0336189
Time = 0.002

MULES: Solving for alpha1
Liquid phase volume fraction = 0.00275421  Min(alpha1) = 0  Max(alpha1) = 1
MULES: Solving for alpha1
Liquid phase volume fraction = 0.00275421  Min(alpha1) = 0  Max(alpha1) = 1
GPU: 48 iters: 1.55739 s: 41.2373 GB/s
Total exec time 22.527
 Total comm time 1.18118Pre time 0.0468548 Post time 1.13433
GPUBICGS:  Solving for pd, Initial residual = 0.00383312, Final residual = 0.000172273, No Iterations 48
GPU: 104 iters: 3.34867 s: 41.5535 GB/s
Total exec time 25.8757
 Total comm time 1.35577Pre time 0.053972 Post time 1.3018
GPUBICGS:  Solving for pd, Initial residual = 0.00219871, Final residual = 0.000106238, No Iterations 104
GPU: 585 iters: 18.7436 s: 41.759 GB/s
Total exec time 44.6192
 Total comm time 2.3339Pre time 0.0910529 Post time 2.24285
GPUBICGS:  Solving for pd, Initial residual = 0.00197034, Final residual = 9.96366e-08, No Iterations 585
time step continuity errors : sum local = 6.97868e-12, global = -2.01694e-24, cumulative = -3.37355e-24
ExecutionTime = 190.44 s  ClockTime = 205 s

Courant Number mean: 7.65519e-06 max: 0.00312326 velocity magnitude: 0.048801
Time = 0.003

MULES: Solving for alpha1
Liquid phase volume fraction = 0.00275421  Min(alpha1) = -7.55334e-31  Max(alpha1) = 1
MULES: Solving for alpha1
Liquid phase volume fraction = 0.00275421  Min(alpha1) = -1.28424e-30  Max(alpha1) = 1
GPU: 80 iters: 2.58249 s: 41.4475 GB/s
Total exec time 47.2017
 Total comm time 2.4653Pre time 0.0958826 Post time 2.36942
GPUBICGS:  Solving for pd, Initial residual = 0.00425002, Final residual = 0.000211831, No Iterations 80
GPU: 64 iters: 2.06806 s: 41.4061 GB/s
Total exec time 49.2698
 Total comm time 2.57266Pre time 0.100204 Post time 2.47246
GPUBICGS:  Solving for pd, Initial residual = 0.0031568, Final residual = 0.000157666, No Iterations 64
GPU: 559 iters: 17.9375 s: 41.6962 GB/s
Total exec time 67.2073
 Total comm time 3.50226Pre time 0.134802 Post time 3.36745
GPUBICGS:  Solving for pd, Initial residual = 0.00264883, Final residual = 9.02955e-08, No Iterations 559
time step continuity errors : sum local = 7.03901e-12, global = 2.13164e-24, cumulative = -1.24191e-24
ExecutionTime = 245.5 s  ClockTime = 261 s

Courant Number mean: 1.35498e-05 max: 0.00481455 velocity magnitude: 0.0752273
Time = 0.004

MULES: Solving for alpha1
Liquid phase volume fraction = 0.00275421  Min(alpha1) = -5.0085e-30  Max(alpha1) = 1
MULES: Solving for alpha1
Liquid phase volume fraction = 0.00275421  Min(alpha1) = -1.32365e-29  Max(alpha1) = 1
GPU: 52 iters: 1.69104 s: 41.143 GB/s
Total exec time 68.8983
 Total comm time 3.58198Pre time 0.140425 Post time 3.44156
GPUBICGS:  Solving for pd, Initial residual = 0.0034338, Final residual = 0.000168615, No Iterations 52
GPU: 64 iters: 2.06908 s: 41.3856 GB/s
Total exec time 70.9674
 Total comm time 3.69352Pre time 0.144078 Post time 3.54944
GPUBICGS:  Solving for pd, Initial residual = 0.00328061, Final residual = 0.000162743, No Iterations 64
GPU: 608 iters: 19.4993 s: 41.7187 GB/s
Total exec time 90.4668
 Total comm time 4.69976Pre time 0.187807 Post time 4.51195
GPUBICGS:  Solving for pd, Initial residual = 0.00251771, Final residual = 1.04934e-08, No Iterations 608
time step continuity errors : sum local = 9.63775e-13, global = 8.95492e-25, cumulative = -3.46416e-25
ExecutionTime = 301.19 s  ClockTime = 316 s

Courant Number mean: 1.92253e-05 max: 0.00596556 velocity magnitude: 0.0932119
Time = 0.005

MULES: Solving for alpha1
Liquid phase volume fraction = 0.00275421  Min(alpha1) = -1.05277e-29  Max(alpha1) = 1
MULES: Solving for alpha1
Liquid phase volume fraction = 0.00275421  Min(alpha1) = -1.66375e-29  Max(alpha1) = 1
GPU: 90 iters: 2.91013 s: 41.3788 GB/s
Total exec time 93.3769
 Total comm time 4.84459Pre time 0.194289 Post time 4.6503
GPUBICGS:  Solving for pd, Initial residual = 0.00218124, Final residual = 0.000108653, No Iterations 90
GPU: 67 iters: 2.16427 s: 41.42 GB/s
Total exec time 95.5411
 Total comm time 4.95376Pre time 0.198307 Post time 4.75546
GPUBICGS:  Solving for pd, Initial residual = 0.00182914, Final residual = 9.03172e-05, No Iterations 67
GPU: 598 iters: 19.1791 s: 41.7177 GB/s
Total exec time 114.72
 Total comm time 5.93957Pre time 0.234248 Post time 5.70532
GPUBICGS:  Solving for pd, Initial residual = 0.00145651, Final residual = 9.74797e-08, No Iterations 598
time step continuity errors : sum local = 8.03904e-12, global = -5.48862e-24, cumulative = -5.83504e-24
ExecutionTime = 357.98 s  ClockTime = 373 s

Courant Number mean: 2.43655e-05 max: 0.0068259 velocity magnitude: 0.106655
Time = 0.006

MULES: Solving for alpha1
Liquid phase volume fraction = 0.00275421  Min(alpha1) = -2.91039e-29  Max(alpha1) = 1
MULES: Solving for alpha1
Liquid phase volume fraction = 0.00275421  Min(alpha1) = -3.35333e-29  Max(alpha1) = 1
GPU: 92 iters: 2.96752 s: 41.4802 GB/s
Total exec time 117.688
 Total comm time 6.09629Pre time 0.243351 Post time 5.85294
GPUBICGS:  Solving for pd, Initial residual = 0.00226113, Final residual = 0.000111199, No Iterations 92
GPU: 72 iters: 2.32298 s: 41.47 GB/s
Total exec time 120.011
 Total comm time 6.21623Pre time 0.247847 Post time 5.96838
GPUBICGS:  Solving for pd, Initial residual = 0.0012238, Final residual = 5.88026e-05, No Iterations 72
GPU: 570 iters: 18.284 s: 41.711 GB/s
Total exec time 138.295
 Total comm time 7.15718Pre time 0.283692 Post time 6.87349
GPUBICGS:  Solving for pd, Initial residual = 0.000730822, Final residual = 7.92014e-08, No Iterations 570
time step continuity errors : sum local = 3.86537e-12, global = -4.63652e-24, cumulative = -1.04716e-23
ExecutionTime = 413.88 s  ClockTime = 429 s

Courant Number mean: 2.948e-05 max: 0.0076296 velocity magnitude: 0.119213
Time = 0.007

MULES: Solving for alpha1
Liquid phase volume fraction = 0.00275421  Min(alpha1) = -5.18976e-29  Max(alpha1) = 1
MULES: Solving for alpha1
Liquid phase volume fraction = 0.00275421  Min(alpha1) = -6.17042e-29  Max(alpha1) = 1
GPU: 86 iters: 2.77557 s: 41.4565 GB/s
Total exec time 141.07
 Total comm time 7.29972Pre time 0.290342 Post time 7.00938
GPUBICGS:  Solving for pd, Initial residual = 0.00231758, Final residual = 0.000112921, No Iterations 86
GPU: 79 iters: 2.54694 s: 41.5007 GB/s
Total exec time 143.617
 Total comm time 7.43217Pre time 0.294342 Post time 7.13783
GPUBICGS:  Solving for pd, Initial residual = 0.00113901, Final residual = 5.46789e-05, No Iterations 79
GPU: 570 iters: 18.2852 s: 41.7082 GB/s
Total exec time 161.902
 Total comm time 8.37473Pre time 0.327611 Post time 8.04712
GPUBICGS:  Solving for pd, Initial residual = 0.000564009, Final residual = 9.41218e-08, No Iterations 570
time step continuity errors : sum local = 8.51169e-12, global = 3.09069e-24, cumulative = -7.38086e-24
ExecutionTime = 469.96 s  ClockTime = 485 s

Courant Number mean: 3.46007e-05 max: 0.00833694 velocity magnitude: 0.130265
Time = 0.008

MULES: Solving for alpha1
Liquid phase volume fraction = 0.00275421  Min(alpha1) = -3.16342e-29  Max(alpha1) = 1
MULES: Solving for alpha1
Liquid phase volume fraction = 0.00275421  Min(alpha1) = -4.16005e-29  Max(alpha1) = 1
GPU: 83 iters: 2.68573 s: 41.3488 GB/s
Total exec time 164.588
 Total comm time 8.50569Pre time 0.331966 Post time 8.17372
GPUBICGS:  Solving for pd, Initial residual = 0.00236048, Final residual = 0.000117636, No Iterations 83
GPU: 72 iters: 2.32679 s: 41.4021 GB/s
Total exec time 166.915
 Total comm time 8.62647Pre time 0.338835 Post time 8.28764
GPUBICGS:  Solving for pd, Initial residual = 0.00111451, Final residual = 5.51915e-05, No Iterations 72
GPU: 360 iters: 11.549 s: 41.7065 GB/s
Total exec time 178.464
 Total comm time 9.21807Pre time 0.361489 Post time 8.85658
GPUBICGS:  Solving for pd, Initial residual = 0.000483511, Final residual = 9.72523e-08, No Iterations 360
time step continuity errors : sum local = 6.91739e-12, global = 5.73016e-24, cumulative = -1.65071e-24
ExecutionTime = 518.98 s  ClockTime = 535 s

Courant Number mean: 3.97355e-05 max: 0.00902761 velocity magnitude: 0.140182
Time = 0.009

MULES: Solving for alpha1
Liquid phase volume fraction = 0.00275421  Min(alpha1) = -3.01542e-29  Max(alpha1) = 1
MULES: Solving for alpha1
Liquid phase volume fraction = 0.00275421  Min(alpha1) = -6.59851e-29  Max(alpha1) = 1
GPU: 77 iters: 2.48428 s: 41.4703 GB/s
Total exec time 180.948
 Total comm time 9.34608Pre time 0.366259 Post time 8.97982
GPUBICGS:  Solving for pd, Initial residual = 0.00241755, Final residual = 0.000120087, No Iterations 77
GPU: 72 iters: 2.32584 s: 41.4189 GB/s
Total exec time 183.274
 Total comm time 9.46143Pre time 0.369922 Post time 9.09151
GPUBICGS:  Solving for pd, Initial residual = 0.00107452, Final residual = 5.33769e-05, No Iterations 72
GPU: 367 iters: 11.7899 s: 41.6488 GB/s
Total exec time 195.064
 Total comm time 10.0873Pre time 0.403648 Post time 9.68365
GPUBICGS:  Solving for pd, Initial residual = 0.000403464, Final residual = 9.60167e-08, No Iterations 367
time step continuity errors : sum local = 6.22142e-12, global = -2.20264e-24, cumulative = -3.85335e-24
ExecutionTime = 568.07 s  ClockTime = 584 s

Courant Number mean: 4.48897e-05 max: 0.00970837 velocity magnitude: 0.149192
Time = 0.01

MULES: Solving for alpha1
Liquid phase volume fraction = 0.00275421  Min(alpha1) = -2.36141e-29  Max(alpha1) = 1
MULES: Solving for alpha1
Liquid phase volume fraction = 0.00275421  Min(alpha1) = -5.58216e-29  Max(alpha1) = 1
GPU: 73 iters: 2.36517 s: 41.2958 GB/s
Total exec time 197.429
 Total comm time 10.1891Pre time 0.407378 Post time 9.78169
GPUBICGS:  Solving for pd, Initial residual = 0.00258006, Final residual = 0.000127986, No Iterations 73
GPU: 69 iters: 2.2279 s: 41.4381 GB/s
Total exec time 199.657
 Total comm time 10.303Pre time 0.410854 Post time 9.8921
GPUBICGS:  Solving for pd, Initial residual = 0.00106629, Final residual = 5.17634e-05, No Iterations 69
GPU: 335 iters: 10.7553 s: 41.6743 GB/s
Total exec time 210.412
 Total comm time 10.8371Pre time 0.431732 Post time 10.4054
GPUBICGS:  Solving for pd, Initial residual = 0.000355246, Final residual = 9.4377e-08, No Iterations 335
time step continuity errors : sum local = 5.35499e-12, global = -2.83475e-24, cumulative = -6.6881e-24
ExecutionTime = 615.8 s  ClockTime = 632 s

End

Finalising parallel run
