 Data for JOB [6011,1] offset 0

 ========================   JOB MAP   ========================

 Data for node: ivb108	Num slots: 6	Max slots: 0	Num procs: 6
 	Process OMPI jobid: [6011,1] App: 0 Process rank: 0
 	Process OMPI jobid: [6011,1] App: 0 Process rank: 1
 	Process OMPI jobid: [6011,1] App: 0 Process rank: 2
 	Process OMPI jobid: [6011,1] App: 0 Process rank: 3
 	Process OMPI jobid: [6011,1] App: 0 Process rank: 4
 	Process OMPI jobid: [6011,1] App: 0 Process rank: 5

 =============================================================
[ivb108:09598] MCW rank 3 bound to socket 0[core 3[hwt 0]]: [./././B/./././././.][./././././././././.]
[ivb108:09598] MCW rank 4 bound to socket 0[core 4[hwt 0]]: [././././B/././././.][./././././././././.]
[ivb108:09598] MCW rank 5 bound to socket 0[core 5[hwt 0]]: [./././././B/./././.][./././././././././.]
[ivb108:09598] MCW rank 0 bound to socket 0[core 0[hwt 0]]: [B/././././././././.][./././././././././.]
[ivb108:09598] MCW rank 1 bound to socket 0[core 1[hwt 0]]: [./B/./././././././.][./././././././././.]
[ivb108:09598] MCW rank 2 bound to socket 0[core 2[hwt 0]]: [././B/././././././.][./././././././././.]
1
0
2
3
4
5
/*---------------------------------------------------------------------------*\
| =========                 |                                                 |
| \\      /  F ield         | foam-extend: Open Source CFD                    |
|  \\    /   O peration     | Version:     3.1                                |
|   \\  /    A nd           | Web:         http://www.extend-project.de       |
|    \\/     M anipulation  |                                                 |
\*---------------------------------------------------------------------------*/
Build    : 3.1-e2da948002a2
Exec     : interFoam -parallel
Date     : May 17 2016
Time     : 17:03:27
Host     : ivb108
PID      : 9648
CtrlDict : /home-2/vplatonov/foam/foam-extend-3.1/etc/controlDict
Case     : /home/vplatonov/tests/rt12mln
nProcs   : 6
Slaves : 
5
(
ivb108.9643
ivb108.9654
ivb108.9660
ivb108.9644
ivb108.9665
)

Pstream initialized with:
    floatTransfer     : 0
    nProcsSimpleSum   : 0
    commsType         : blocking
SigFpe   : Enabling floating point exception trapping (FOAM_SIGFPE).

// * * * * * * * * * * * * * * * * * * * * * * * * * * * * * * * * * * * * * //
Create time

Create mesh for time = 0


Reading g
Reading field pd

Reading field alpha1

Reading field U

Reading/calculating face flux field phi

Reading transportProperties

Selecting incompressible transport model Newtonian
Selecting incompressible transport model Newtonian
Calculating field g.h

Selecting turbulence model type laminar
time step continuity errors : sum local = 0, global = 0, cumulative = 0
Created persistent data with name pcorr
GPUBICGS:  Solving for pcorr, Initial residual = 0, Final residual = 0, No Iterations 0
time step continuity errors : sum local = 0, global = 0, cumulative = 0
Courant Number mean: 0 max: 0 velocity magnitude: 0

Starting time loop

Courant Number mean: 0 max: 0 velocity magnitude: 0
Time = 0.001

MULES: Solving for alpha1
Liquid phase volume fraction = 0.00275421  Min(alpha1) = 0  Max(alpha1) = 1
MULES: Solving for alpha1
Liquid phase volume fraction = 0.00275421  Min(alpha1) = 0  Max(alpha1) = 1
Created persistent data with name pd
Computing AINV with droptol 0.02
GPU: 2 iters: 0.0465636 s: 38.323 GB/s
Total exec time 0.0465636
 Total comm time 0.00135434Pre time 0.000165216 Post time 0.00118912
GPUBICGS:  Solving for pd, Initial residual = 1, Final residual = 0.0487452, No Iterations 2
Computing AINV with droptol 0.02
GPU: 27 iters: 0.471612 s: 51.0805 GB/s
Total exec time 0.518175
 Total comm time 0.0171155Pre time 0.0014663 Post time 0.0156492
GPUBICGS:  Solving for pd, Initial residual = 0.0329437, Final residual = 0.00159096, No Iterations 27
GPU: 618 iters: 10.5041 s: 52.4934 GB/s
Total exec time 11.0223
 Total comm time 0.509279Pre time 0.0291435 Post time 0.480135
GPUBICGS:  Solving for pd, Initial residual = 0.0128911, Final residual = 1.74039e-08, No Iterations 618
time step continuity errors : sum local = 1.56396e-12, global = -4.8729e-24, cumulative = -4.8729e-24
ExecutionTime = 91.32 s  ClockTime = 105 s

Courant Number mean: 4.8218e-06 max: 0.00215159 velocity magnitude: 0.0336186
Time = 0.002

MULES: Solving for alpha1
Liquid phase volume fraction = 0.00275421  Min(alpha1) = 0  Max(alpha1) = 1
MULES: Solving for alpha1
Liquid phase volume fraction = 0.00275421  Min(alpha1) = 0  Max(alpha1) = 1
GPU: 470 iters: 7.98176 s: 52.5382 GB/s
Total exec time 19.0041
 Total comm time 0.887726Pre time 0.0498463 Post time 0.837879
GPUBICGS:  Solving for pd, Initial residual = 0.00503781, Final residual = 0.000244159, No Iterations 470
GPU: 494 iters: 8.38287 s: 52.5788 GB/s
Total exec time 27.3869
 Total comm time 1.32456Pre time 0.0717748 Post time 1.25278
GPUBICGS:  Solving for pd, Initial residual = 0.00391743, Final residual = 0.000135129, No Iterations 494
GPU: 638 iters: 10.8291 s: 52.5661 GB/s
Total exec time 38.216
 Total comm time 1.92073Pre time 0.101013 Post time 1.81972
GPUBICGS:  Solving for pd, Initial residual = 0.00337826, Final residual = 7.05818e-08, No Iterations 638
time step continuity errors : sum local = 4.11117e-08, global = -4.11108e-08, cumulative = -4.11108e-08
ExecutionTime = 142.1 s  ClockTime = 156 s

Courant Number mean: 1.34981e-05 max: 0.219341 velocity magnitude: 1.7136
Time = 0.003

MULES: Solving for alpha1
Liquid phase volume fraction = 0.00275424  Min(alpha1) = -1.88025e-30  Max(alpha1) = 1
MULES: Solving for alpha1
Liquid phase volume fraction = 0.00275426  Min(alpha1) = -1.78362e-30  Max(alpha1) = 1
GPU: 560 iters: 9.54934 s: 52.3228 GB/s
Total exec time 47.7653
 Total comm time 2.38472Pre time 0.126787 Post time 2.25793
GPUBICGS:  Solving for pd, Initial residual = 0.00742822, Final residual = 2.22633e-05, No Iterations 560
GPU: 466 iters: 7.94436 s: 52.3363 GB/s
Total exec time 55.7097
 Total comm time 2.75632Pre time 0.148562 Post time 2.60775
GPUBICGS:  Solving for pd, Initial residual = 0.00483596, Final residual = 9.09874e-05, No Iterations 466
GPU: 641 iters: 10.8902 s: 52.5169 GB/s
Total exec time 66.5999
 Total comm time 3.30295Pre time 0.177776 Post time 3.12518
GPUBICGS:  Solving for pd, Initial residual = 0.00495384, Final residual = 9.8316e-08, No Iterations 641
time step continuity errors : sum local = 2.22711e-08, global = -2.22628e-08, cumulative = -6.33736e-08
ExecutionTime = 194.32 s  ClockTime = 209 s

Courant Number mean: 1.62983e-05 max: 0.131768 velocity magnitude: 1.02944
Time = 0.004

MULES: Solving for alpha1
Liquid phase volume fraction = 0.00275427  Min(alpha1) = -1.00269e-29  Max(alpha1) = 1
MULES: Solving for alpha1
Liquid phase volume fraction = 0.00275428  Min(alpha1) = -1.35846e-29  Max(alpha1) = 1
GPU: 502 iters: 8.53095 s: 52.5028 GB/s
Total exec time 75.1308
 Total comm time 3.76939Pre time 0.20116 Post time 3.56823
GPUBICGS:  Solving for pd, Initial residual = 0.0084145, Final residual = 3.78835e-05, No Iterations 502
GPU: 480 iters: 8.19146 s: 52.2824 GB/s
Total exec time 83.3223
 Total comm time 4.24351Pre time 0.223851 Post time 4.01966
GPUBICGS:  Solving for pd, Initial residual = 0.00673209, Final residual = 0.000325772, No Iterations 480
GPU: 670 iters: 11.41 s: 52.3922 GB/s
Total exec time 94.7322
 Total comm time 4.79206Pre time 0.253618 Post time 4.53845
GPUBICGS:  Solving for pd, Initial residual = 0.00667093, Final residual = 8.95761e-08, No Iterations 670
time step continuity errors : sum local = 1.05158e-08, global = -1.05137e-08, cumulative = -7.38872e-08
ExecutionTime = 245.98 s  ClockTime = 261 s

Courant Number mean: 2.02572e-05 max: 0.075641 velocity magnitude: 0.590945
Time = 0.005

MULES: Solving for alpha1
Liquid phase volume fraction = 0.00275429  Min(alpha1) = -1.19433e-29  Max(alpha1) = 1
MULES: Solving for alpha1
Liquid phase volume fraction = 0.00275429  Min(alpha1) = -1.82512e-29  Max(alpha1) = 1
GPU: 520 iters: 8.78836 s: 52.7924 GB/s
Total exec time 103.521
 Total comm time 5.33448Pre time 0.277381 Post time 5.0571
GPUBICGS:  Solving for pd, Initial residual = 0.00670705, Final residual = 0.0002274, No Iterations 520
GPU: 118 iters: 1.97246 s: 53.3766 GB/s
Total exec time 105.493
 Total comm time 5.52153Pre time 0.282731 Post time 5.2388
GPUBICGS:  Solving for pd, Initial residual = 0.0057652, Final residual = 0.000283975, No Iterations 118
GPU: 580 iters: 9.84094 s: 52.5857 GB/s
Total exec time 115.334
 Total comm time 6.05195Pre time 0.308407 Post time 5.74354
GPUBICGS:  Solving for pd, Initial residual = 0.00563714, Final residual = 8.76222e-08, No Iterations 580
time step continuity errors : sum local = 2.48077e-09, global = -2.47589e-09, cumulative = -7.63631e-08
ExecutionTime = 290.53 s  ClockTime = 306 s

Courant Number mean: 2.4364e-05 max: 0.0275635 velocity magnitude: 0.293203
Time = 0.006

MULES: Solving for alpha1
Liquid phase volume fraction = 0.00275429  Min(alpha1) = -2.85578e-29  Max(alpha1) = 1
MULES: Solving for alpha1
Liquid phase volume fraction = 0.00275429  Min(alpha1) = -3.86029e-29  Max(alpha1) = 1
GPU: 532 iters: 9.03944 s: 52.5105 GB/s
Total exec time 124.373
 Total comm time 6.52646Pre time 0.332879 Post time 6.19359
GPUBICGS:  Solving for pd, Initial residual = 0.00740983, Final residual = 0.00028733, No Iterations 532
GPU: 455 iters: 7.68173 s: 52.848 GB/s
Total exec time 132.055
 Total comm time 7.04161Pre time 0.353666 Post time 6.68794
GPUBICGS:  Solving for pd, Initial residual = 0.00562329, Final residual = 6.59823e-05, No Iterations 455
GPU: 608 iters: 10.3426 s: 52.4504 GB/s
Total exec time 142.398
 Total comm time 7.58041Pre time 0.381187 Post time 7.19922
GPUBICGS:  Solving for pd, Initial residual = 0.00535249, Final residual = 3.73713e-08, No Iterations 608
time step continuity errors : sum local = 9.801e-12, global = 9.66237e-12, cumulative = -7.63535e-08
ExecutionTime = 341.33 s  ClockTime = 357 s

Courant Number mean: 2.9286e-05 max: 0.0327303 velocity magnitude: 0.255706
Time = 0.007

MULES: Solving for alpha1
Liquid phase volume fraction = 0.00275429  Min(alpha1) = -4.94077e-29  Max(alpha1) = 1
MULES: Solving for alpha1
Liquid phase volume fraction = 0.00275429  Min(alpha1) = -5.46553e-29  Max(alpha1) = 1
GPU: 481 iters: 8.10628 s: 52.9419 GB/s
Total exec time 150.504
 Total comm time 8.11264Pre time 0.402447 Post time 7.7102
GPUBICGS:  Solving for pd, Initial residual = 0.00707991, Final residual = 0.000294787, No Iterations 481
GPU: 449 iters: 7.60835 s: 52.6541 GB/s
Total exec time 158.112
 Total comm time 8.54867Pre time 0.422394 Post time 8.12628
GPUBICGS:  Solving for pd, Initial residual = 0.00458933, Final residual = 0.000229341, No Iterations 449
GPU: 577 iters: 9.76914 s: 52.6982 GB/s
Total exec time 167.882
 Total comm time 9.07135Pre time 0.448615 Post time 8.62273
GPUBICGS:  Solving for pd, Initial residual = 0.00416481, Final residual = 9.53529e-08, No Iterations 577
time step continuity errors : sum local = 1.44155e-10, global = 1.40961e-10, cumulative = -7.62125e-08
ExecutionTime = 390.63 s  ClockTime = 407 s

Courant Number mean: 3.43759e-05 max: 0.00927025 velocity magnitude: 0.130261
Time = 0.008

MULES: Solving for alpha1
Liquid phase volume fraction = 0.00275429  Min(alpha1) = -4.36626e-29  Max(alpha1) = 1
MULES: Solving for alpha1
Liquid phase volume fraction = 0.00275429  Min(alpha1) = -3.11414e-29  Max(alpha1) = 1
GPU: 517 iters: 8.7296 s: 52.8412 GB/s
Total exec time 176.611
 Total comm time 9.6083Pre time 0.471703 Post time 9.13659
GPUBICGS:  Solving for pd, Initial residual = 0.00753812, Final residual = 0.000108013, No Iterations 517
GPU: 59 iters: 0.99276 s: 53.0254 GB/s
Total exec time 177.604
 Total comm time 9.68071Pre time 0.474529 Post time 9.20618
GPUBICGS:  Solving for pd, Initial residual = 0.00418915, Final residual = 0.000208992, No Iterations 59
GPU: 605 iters: 10.259 s: 52.6169 GB/s
Total exec time 187.863
 Total comm time 10.2488Pre time 0.501894 Post time 9.74688
GPUBICGS:  Solving for pd, Initial residual = 0.00415621, Final residual = 8.11403e-08, No Iterations 605
time step continuity errors : sum local = 1.58219e-10, global = 1.5616e-10, cumulative = -7.60563e-08
ExecutionTime = 434.55 s  ClockTime = 451 s

Courant Number mean: 3.94865e-05 max: 0.00902704 velocity magnitude: 0.140181
Time = 0.009

MULES: Solving for alpha1
Liquid phase volume fraction = 0.00275429  Min(alpha1) = -2.59398e-29  Max(alpha1) = 1
MULES: Solving for alpha1
Liquid phase volume fraction = 0.00275429  Min(alpha1) = -2.74523e-29  Max(alpha1) = 1
GPU: 499 iters: 8.43909 s: 52.7571 GB/s
Total exec time 196.302
 Total comm time 10.7356Pre time 0.524488 Post time 10.2111
GPUBICGS:  Solving for pd, Initial residual = 0.00747782, Final residual = 0.000198755, No Iterations 499
GPU: 423 iters: 7.19211 s: 52.4759 GB/s
Total exec time 203.494
 Total comm time 11.1028Pre time 0.543988 Post time 10.5588
GPUBICGS:  Solving for pd, Initial residual = 0.00458785, Final residual = 0.00020854, No Iterations 423
GPU: 563 iters: 9.55739 s: 52.5588 GB/s
Total exec time 213.052
 Total comm time 11.5726Pre time 0.569574 Post time 11.003
GPUBICGS:  Solving for pd, Initial residual = 0.00421719, Final residual = 9.33728e-08, No Iterations 563
time step continuity errors : sum local = 1.06869e-11, global = 2.65134e-12, cumulative = -7.60537e-08
ExecutionTime = 483.5 s  ClockTime = 501 s

Courant Number mean: 4.46051e-05 max: 0.00970779 velocity magnitude: 0.149193
Time = 0.01

MULES: Solving for alpha1
Liquid phase volume fraction = 0.00275429  Min(alpha1) = -2.00823e-29  Max(alpha1) = 1
MULES: Solving for alpha1
Liquid phase volume fraction = 0.00275429  Min(alpha1) = -1.54266e-29  Max(alpha1) = 1
GPU: 506 iters: 8.61479 s: 52.4061 GB/s
Total exec time 221.666
 Total comm time 12.0526Pre time 0.592448 Post time 11.4601
GPUBICGS:  Solving for pd, Initial residual = 0.00815498, Final residual = 0.0001662, No Iterations 506
GPU: 58 iters: 0.989821 s: 52.2814 GB/s
Total exec time 222.656
 Total comm time 12.0942Pre time 0.595021 Post time 11.4992
GPUBICGS:  Solving for pd, Initial residual = 0.00538514, Final residual = 0.000265671, No Iterations 58
GPU: 626 iters: 10.5981 s: 52.7016 GB/s
Total exec time 233.254
 Total comm time 12.6889Pre time 0.623253 Post time 12.0656
GPUBICGS:  Solving for pd, Initial residual = 0.0053433, Final residual = 7.77225e-08, No Iterations 626
time step continuity errors : sum local = 4.91979e-11, global = -4.21372e-11, cumulative = -7.60958e-08
ExecutionTime = 527.7 s  ClockTime = 545 s

End

Finalising parallel run
