 Data for JOB [41696,1] offset 0

 ========================   JOB MAP   ========================

 Data for node: ivb108	Num slots: 2	Max slots: 0	Num procs: 2
 	Process OMPI jobid: [41696,1] App: 0 Process rank: 0
 	Process OMPI jobid: [41696,1] App: 0 Process rank: 1

 Data for node: ivb109	Num slots: 2	Max slots: 0	Num procs: 2
 	Process OMPI jobid: [41696,1] App: 0 Process rank: 2
 	Process OMPI jobid: [41696,1] App: 0 Process rank: 3

 =============================================================
[ivb108:37093] MCW rank 1 bound to socket 0[core 1[hwt 0]]: [./B/./././././././.][./././././././././.]
[ivb108:37093] MCW rank 0 bound to socket 0[core 0[hwt 0]]: [B/././././././././.][./././././././././.]
[ivb109:06260] MCW rank 3 bound to socket 0[core 1[hwt 0]]: [./B/./././././././.][./././././././././.]
[ivb109:06260] MCW rank 2 bound to socket 0[core 0[hwt 0]]: [B/././././././././.][./././././././././.]
1
0
1
0
/*---------------------------------------------------------------------------*\
| =========                 |                                                 |
| \\      /  F ield         | foam-extend: Open Source CFD                    |
|  \\    /   O peration     | Version:     3.1                                |
|   \\  /    A nd           | Web:         http://www.extend-project.de       |
|    \\/     M anipulation  |                                                 |
\*---------------------------------------------------------------------------*/
Build    : 3.1-e2da948002a2
Exec     : interFoam -parallel
Date     : May 18 2016
Time     : 06:08:24
Host     : ivb108
PID      : 37121
CtrlDict : /home-2/vplatonov/foam/foam-extend-3.1/etc/controlDict
Case     : /home/vplatonov/tests/rt12mln
nProcs   : 4
Slaves : 
3
(
ivb108.37122
ivb109.6284
ivb109.6283
)

Pstream initialized with:
    floatTransfer     : 0
    nProcsSimpleSum   : 0
    commsType         : blocking
SigFpe   : Enabling floating point exception trapping (FOAM_SIGFPE).

// * * * * * * * * * * * * * * * * * * * * * * * * * * * * * * * * * * * * * //
Create time

Create mesh for time = 0


Reading g
Reading field pd

Reading field alpha1

Reading field U

Reading/calculating face flux field phi

Reading transportProperties

Selecting incompressible transport model Newtonian
Selecting incompressible transport model Newtonian
Calculating field g.h

Selecting turbulence model type laminar
time step continuity errors : sum local = 0, global = 0, cumulative = 0
Created persistent data with name pcorr
SGPUBICGS:  Solving for pcorr, Initial residual = 0, Final residual = 0, No Iterations 0
time step continuity errors : sum local = 0, global = 0, cumulative = 0
Courant Number mean: 0 max: 0 velocity magnitude: 0

Starting time loop

Courant Number mean: 0 max: 0 velocity magnitude: 0
Time = 0.001

MULES: Solving for alpha1
Liquid phase volume fraction = 0.00275421  Min(alpha1) = 0  Max(alpha1) = 1
MULES: Solving for alpha1
Liquid phase volume fraction = 0.00275421  Min(alpha1) = 0  Max(alpha1) = 1
Created persistent data with name pd
Computing AINV with droptol 0.02
GPU: 2 iters: 0.0616347 s: 43.4161 GB/s
Total exec time 0.0616347
 Total comm time 1.68e-05Pre time 0 Post time 1.68e-05
SGPUBICGS:  Solving for pd, Initial residual = 1, Final residual = 0.048381, No Iterations 2
Computing AINV with droptol 0.02
GPU: 30 iters: 0.674971 s: 59.4679 GB/s
Total exec time 0.736606
 Total comm time 0.000223392Pre time 0 Post time 0.000223392
SGPUBICGS:  Solving for pd, Initial residual = 0.0328058, Final residual = 0.00134775, No Iterations 30
GPU: 621 iters: 13.4607 s: 61.7265 GB/s
Total exec time 14.1973
 Total comm time 0.00471658Pre time 0 Post time 0.00471658
SGPUBICGS:  Solving for pd, Initial residual = 0.0125474, Final residual = 8.44542e-08, No Iterations 621
time step continuity errors : sum local = 7.39783e-12, global = -1.35661e-24, cumulative = -1.35661e-24
ExecutionTime = 122.74 s  ClockTime = 133 s

Courant Number mean: 4.85833e-06 max: 0.00215161 velocity magnitude: 0.0336189
Time = 0.002

MULES: Solving for alpha1
Liquid phase volume fraction = 0.00275421  Min(alpha1) = 0  Max(alpha1) = 1
MULES: Solving for alpha1
Liquid phase volume fraction = 0.00275421  Min(alpha1) = 0  Max(alpha1) = 1
GPU: 48 iters: 1.04342 s: 61.5504 GB/s
Total exec time 15.2407
 Total comm time 0.00549357Pre time 0 Post time 0.00549357
SGPUBICGS:  Solving for pd, Initial residual = 0.00383312, Final residual = 0.000172273, No Iterations 48
GPU: 104 iters: 2.28207 s: 60.9749 GB/s
Total exec time 17.5228
 Total comm time 0.00620371Pre time 0 Post time 0.00620371
SGPUBICGS:  Solving for pd, Initial residual = 0.00219871, Final residual = 0.000106238, No Iterations 104
GPU: 585 iters: 12.6261 s: 61.9919 GB/s
Total exec time 30.1488
 Total comm time 0.010796Pre time 0 Post time 0.010796
SGPUBICGS:  Solving for pd, Initial residual = 0.00197034, Final residual = 9.96366e-08, No Iterations 585
time step continuity errors : sum local = 6.97868e-12, global = -2.01694e-24, cumulative = -3.37355e-24
ExecutionTime = 167.45 s  ClockTime = 178 s

Courant Number mean: 7.65519e-06 max: 0.00312326 velocity magnitude: 0.048801
Time = 0.003

MULES: Solving for alpha1
Liquid phase volume fraction = 0.00275421  Min(alpha1) = -7.55334e-31  Max(alpha1) = 1
MULES: Solving for alpha1
Liquid phase volume fraction = 0.00275421  Min(alpha1) = -1.28424e-30  Max(alpha1) = 1
GPU: 80 iters: 1.74193 s: 61.4476 GB/s
Total exec time 31.8907
 Total comm time 0.0113435Pre time 0 Post time 0.0113435
SGPUBICGS:  Solving for pd, Initial residual = 0.00425002, Final residual = 0.000211831, No Iterations 80
GPU: 64 iters: 1.39605 s: 61.3373 GB/s
Total exec time 33.2868
 Total comm time 0.0117834Pre time 0 Post time 0.0117834
SGPUBICGS:  Solving for pd, Initial residual = 0.0031568, Final residual = 0.000157666, No Iterations 64
GPU: 559 iters: 12.098 s: 61.8225 GB/s
Total exec time 45.3848
 Total comm time 0.0161574Pre time 0 Post time 0.0161574
SGPUBICGS:  Solving for pd, Initial residual = 0.00264883, Final residual = 9.02955e-08, No Iterations 559
time step continuity errors : sum local = 7.03901e-12, global = 2.13164e-24, cumulative = -1.24191e-24
ExecutionTime = 211.42 s  ClockTime = 222 s

Courant Number mean: 1.35498e-05 max: 0.00481455 velocity magnitude: 0.0752273
Time = 0.004

MULES: Solving for alpha1
Liquid phase volume fraction = 0.00275421  Min(alpha1) = -5.0085e-30  Max(alpha1) = 1
MULES: Solving for alpha1
Liquid phase volume fraction = 0.00275421  Min(alpha1) = -1.32365e-29  Max(alpha1) = 1
GPU: 52 iters: 1.14381 s: 60.8272 GB/s
Total exec time 46.5286
 Total comm time 0.0165142Pre time 0 Post time 0.0165142
SGPUBICGS:  Solving for pd, Initial residual = 0.0034338, Final residual = 0.000168615, No Iterations 52
GPU: 64 iters: 1.39387 s: 61.4335 GB/s
Total exec time 47.9224
 Total comm time 0.0169537Pre time 0 Post time 0.0169537
SGPUBICGS:  Solving for pd, Initial residual = 0.00328061, Final residual = 0.000162743, No Iterations 64
GPU: 608 iters: 13.1418 s: 61.9008 GB/s
Total exec time 61.0642
 Total comm time 0.0214242Pre time 0 Post time 0.0214242
SGPUBICGS:  Solving for pd, Initial residual = 0.00251771, Final residual = 1.04934e-08, No Iterations 608
time step continuity errors : sum local = 9.63775e-13, global = 8.95492e-25, cumulative = -3.46416e-25
ExecutionTime = 255.74 s  ClockTime = 267 s

Courant Number mean: 1.92253e-05 max: 0.00596556 velocity magnitude: 0.0932119
Time = 0.005

MULES: Solving for alpha1
Liquid phase volume fraction = 0.00275421  Min(alpha1) = -1.05277e-29  Max(alpha1) = 1
MULES: Solving for alpha1
Liquid phase volume fraction = 0.00275421  Min(alpha1) = -1.66375e-29  Max(alpha1) = 1
GPU: 90 iters: 1.95054 s: 61.7354 GB/s
Total exec time 63.0148
 Total comm time 0.0222037Pre time 0 Post time 0.0222037
SGPUBICGS:  Solving for pd, Initial residual = 0.00218124, Final residual = 0.000108653, No Iterations 90
GPU: 67 iters: 1.4545 s: 61.6323 GB/s
Total exec time 64.4693
 Total comm time 0.0227279Pre time 0 Post time 0.0227279
SGPUBICGS:  Solving for pd, Initial residual = 0.00182914, Final residual = 9.03172e-05, No Iterations 67
GPU: 598 iters: 12.9142 s: 61.9555 GB/s
Total exec time 77.3835
 Total comm time 0.0285377Pre time 0 Post time 0.0285377
SGPUBICGS:  Solving for pd, Initial residual = 0.00145651, Final residual = 9.74797e-08, No Iterations 598
time step continuity errors : sum local = 8.03904e-12, global = -5.48862e-24, cumulative = -5.83504e-24
ExecutionTime = 300.74 s  ClockTime = 312 s

Courant Number mean: 2.43655e-05 max: 0.0068259 velocity magnitude: 0.106655
Time = 0.006

MULES: Solving for alpha1
Liquid phase volume fraction = 0.00275421  Min(alpha1) = -2.91039e-29  Max(alpha1) = 1
MULES: Solving for alpha1
Liquid phase volume fraction = 0.00275421  Min(alpha1) = -3.35333e-29  Max(alpha1) = 1
GPU: 92 iters: 2.02781 s: 60.7026 GB/s
Total exec time 79.4113
 Total comm time 0.0291655Pre time 0 Post time 0.0291655
SGPUBICGS:  Solving for pd, Initial residual = 0.00226113, Final residual = 0.000111199, No Iterations 92
GPU: 72 iters: 1.57987 s: 60.976 GB/s
Total exec time 80.9912
 Total comm time 0.0296583Pre time 0 Post time 0.0296583
SGPUBICGS:  Solving for pd, Initial residual = 0.0012238, Final residual = 5.88026e-05, No Iterations 72
GPU: 570 iters: 12.3507 s: 61.7493 GB/s
Total exec time 93.3418
 Total comm time 0.0349574Pre time 0 Post time 0.0349574
SGPUBICGS:  Solving for pd, Initial residual = 0.000730822, Final residual = 7.92014e-08, No Iterations 570
time step continuity errors : sum local = 3.86537e-12, global = -4.63652e-24, cumulative = -1.04716e-23
ExecutionTime = 345.22 s  ClockTime = 357 s

Courant Number mean: 2.948e-05 max: 0.0076296 velocity magnitude: 0.119213
Time = 0.007

MULES: Solving for alpha1
Liquid phase volume fraction = 0.00275421  Min(alpha1) = -5.18976e-29  Max(alpha1) = 1
MULES: Solving for alpha1
Liquid phase volume fraction = 0.00275421  Min(alpha1) = -6.17042e-29  Max(alpha1) = 1
GPU: 86 iters: 1.86658 s: 61.645 GB/s
Total exec time 95.2084
 Total comm time 0.0355445Pre time 0 Post time 0.0355445
SGPUBICGS:  Solving for pd, Initial residual = 0.00231758, Final residual = 0.000112921, No Iterations 86
GPU: 79 iters: 1.73011 s: 61.0941 GB/s
Total exec time 96.9385
 Total comm time 0.0360851Pre time 0 Post time 0.0360851
SGPUBICGS:  Solving for pd, Initial residual = 0.00113901, Final residual = 5.46789e-05, No Iterations 79
GPU: 570 iters: 12.3423 s: 61.7911 GB/s
Total exec time 109.281
 Total comm time 0.0408323Pre time 0 Post time 0.0408323
SGPUBICGS:  Solving for pd, Initial residual = 0.000564009, Final residual = 9.41218e-08, No Iterations 570
time step continuity errors : sum local = 8.51169e-12, global = 3.09069e-24, cumulative = -7.38086e-24
ExecutionTime = 390.12 s  ClockTime = 402 s

Courant Number mean: 3.46007e-05 max: 0.00833694 velocity magnitude: 0.130265
Time = 0.008

MULES: Solving for alpha1
Liquid phase volume fraction = 0.00275421  Min(alpha1) = -3.16342e-29  Max(alpha1) = 1
MULES: Solving for alpha1
Liquid phase volume fraction = 0.00275421  Min(alpha1) = -4.16005e-29  Max(alpha1) = 1
GPU: 83 iters: 1.79887 s: 61.7341 GB/s
Total exec time 111.08
 Total comm time 0.0414006Pre time 0 Post time 0.0414006
SGPUBICGS:  Solving for pd, Initial residual = 0.00236048, Final residual = 0.000117636, No Iterations 83
GPU: 72 iters: 1.56551 s: 61.5354 GB/s
Total exec time 112.645
 Total comm time 0.0418942Pre time 0 Post time 0.0418942
SGPUBICGS:  Solving for pd, Initial residual = 0.00111451, Final residual = 5.51915e-05, No Iterations 72
GPU: 360 iters: 7.82101 s: 61.5866 GB/s
Total exec time 120.466
 Total comm time 0.0443806Pre time 0 Post time 0.0443806
SGPUBICGS:  Solving for pd, Initial residual = 0.000483511, Final residual = 9.72523e-08, No Iterations 360
time step continuity errors : sum local = 6.91739e-12, global = 5.73016e-24, cumulative = -1.65071e-24
ExecutionTime = 430.24 s  ClockTime = 442 s

Courant Number mean: 3.97355e-05 max: 0.00902761 velocity magnitude: 0.140182
Time = 0.009

MULES: Solving for alpha1
Liquid phase volume fraction = 0.00275421  Min(alpha1) = -3.01542e-29  Max(alpha1) = 1
MULES: Solving for alpha1
Liquid phase volume fraction = 0.00275421  Min(alpha1) = -6.59851e-29  Max(alpha1) = 1
GPU: 77 iters: 1.66448 s: 61.8956 GB/s
Total exec time 122.131
 Total comm time 0.0449073Pre time 0 Post time 0.0449073
SGPUBICGS:  Solving for pd, Initial residual = 0.00241755, Final residual = 0.000120087, No Iterations 77
GPU: 72 iters: 1.56898 s: 61.3992 GB/s
Total exec time 123.7
 Total comm time 0.0454001Pre time 0 Post time 0.0454001
SGPUBICGS:  Solving for pd, Initial residual = 0.00107452, Final residual = 5.33769e-05, No Iterations 72
GPU: 367 iters: 7.95911 s: 61.6947 GB/s
Total exec time 131.659
 Total comm time 0.0488625Pre time 0 Post time 0.0488625
SGPUBICGS:  Solving for pd, Initial residual = 0.000403464, Final residual = 9.60167e-08, No Iterations 367
time step continuity errors : sum local = 6.22142e-12, global = -2.20264e-24, cumulative = -3.85335e-24
ExecutionTime = 470.53 s  ClockTime = 483 s

Courant Number mean: 4.48897e-05 max: 0.00970837 velocity magnitude: 0.149192
Time = 0.01

MULES: Solving for alpha1
Liquid phase volume fraction = 0.00275421  Min(alpha1) = -2.36141e-29  Max(alpha1) = 1
MULES: Solving for alpha1
Liquid phase volume fraction = 0.00275421  Min(alpha1) = -5.58216e-29  Max(alpha1) = 1
GPU: 73 iters: 1.5986 s: 61.0984 GB/s
Total exec time 133.257
 Total comm time 0.0493616Pre time 0 Post time 0.0493616
SGPUBICGS:  Solving for pd, Initial residual = 0.00258006, Final residual = 0.000127986, No Iterations 73
GPU: 69 iters: 1.50995 s: 61.141 GB/s
Total exec time 134.767
 Total comm time 0.0498347Pre time 0 Post time 0.0498347
SGPUBICGS:  Solving for pd, Initial residual = 0.00106629, Final residual = 5.17634e-05, No Iterations 69
GPU: 335 iters: 7.20063 s: 62.2474 GB/s
Total exec time 141.968
 Total comm time 0.0530597Pre time 0 Post time 0.0530597
SGPUBICGS:  Solving for pd, Initial residual = 0.000355246, Final residual = 9.4377e-08, No Iterations 335
time step continuity errors : sum local = 5.35499e-12, global = -2.83475e-24, cumulative = -6.6881e-24
ExecutionTime = 509.85 s  ClockTime = 522 s

End

Finalising parallel run
