 Data for JOB [42663,1] offset 0

 ========================   JOB MAP   ========================

 Data for node: ivb106	Num slots: 4	Max slots: 0	Num procs: 4
 	Process OMPI jobid: [42663,1] App: 0 Process rank: 0
 	Process OMPI jobid: [42663,1] App: 0 Process rank: 1
 	Process OMPI jobid: [42663,1] App: 0 Process rank: 2
 	Process OMPI jobid: [42663,1] App: 0 Process rank: 3

 =============================================================
[ivb106:11573] MCW rank 2 bound to socket 0[core 2[hwt 0]]: [././B/././././././.][./././././././././.]
[ivb106:11573] MCW rank 3 bound to socket 0[core 3[hwt 0]]: [./././B/./././././.][./././././././././.]
[ivb106:11573] MCW rank 0 bound to socket 0[core 0[hwt 0]]: [B/././././././././.][./././././././././.]
[ivb106:11573] MCW rank 1 bound to socket 0[core 1[hwt 0]]: [./B/./././././././.][./././././././././.]
0
1
2
3
/*---------------------------------------------------------------------------*\
| =========                 |                                                 |
| \\      /  F ield         | foam-extend: Open Source CFD                    |
|  \\    /   O peration     | Version:     3.1                                |
|   \\  /    A nd           | Web:         http://www.extend-project.de       |
|    \\/     M anipulation  |                                                 |
\*---------------------------------------------------------------------------*/
Build    : 3.1-e2da948002a2
Exec     : interFoam -parallel
Date     : May 21 2016
Time     : 20:46:24
Host     : ivb106
PID      : 11617
CtrlDict : /home-2/vplatonov/foam/foam-extend-3.1/etc/controlDict
Case     : /home/vplatonov/tests/rt12mln
nProcs   : 4
Slaves : 
3
(
ivb106.11604
ivb106.11606
ivb106.11612
)

Pstream initialized with:
    floatTransfer     : 0
    nProcsSimpleSum   : 0
    commsType         : blocking
SigFpe   : Enabling floating point exception trapping (FOAM_SIGFPE).

// * * * * * * * * * * * * * * * * * * * * * * * * * * * * * * * * * * * * * //
Create time

Create mesh for time = 0


Reading g
Reading field pd

Reading field alpha1

Reading field U

Reading/calculating face flux field phi

Reading transportProperties

Selecting incompressible transport model Newtonian
Selecting incompressible transport model Newtonian
Calculating field g.h

Selecting turbulence model type laminar
time step continuity errors : sum local = 0, global = 0, cumulative = 0
[1] Building level 0
Created persistent data with name pcorr
[0] Building level 0
[3] Building level 0
[2] Building level 0
Creating AMGLevel 
[1] Building level 1
[2] Building level 1
[0] Building level 1
[3] Building level 1
Creating AMGLevel 
[1] Building level 2
[2] Building level 2
[0] Building level 2
[3] Building level 2
[1] Building level 3
[2] Building level 3
[3] Building level 3
Creating AMGLevel 
[0] Building level 3
[2] Building level 4
[1] Building level 4
[3] Building level 4
Creating AMGLevel 
[0] Building level 4
[2] Building level 5
[1] Building level 5
[3] Building level 5
Creating AMGLevel 
[0] Building level 5
[2] Building level 6
[1] Building level 6
[3] Building level 6
Creating AMGLevel 
[0] Building level 6
[2] Building level 7
[1] Building level 7
[2] Building level 8
[3] Building level 7
Creating AMGLevel 
[0] Building level 7
[1] Building level 8
[2] Building level 9
[2] Building level 10
[3] Building level 8
[1] Building level 9
[2] Building level 11
[2] Building level 12
[1] Building level 10
Creating AMGLevel 
[0] Building level 8
[2] Building level 13
[2] Building level 14
[3] Building level 9
[1] Building level 11
[1] Building level 12
[1] Building level 13
[1] Building level 14
[3] Building level 10
Creating AMGLevel 
[0] Building level 9
[3] Building level 11
Creating AMGLevel 
[0] Building level 10
[3] Building level 12
[3] Building level 13
[3] Building level 14
Creating AMGLevel 
[0] Building level 11
Creating AMGLevel 
[0] Building level 12
Creating AMGLevel 
[0] Building level 13
Creating AMGLevel 
[0] Building level 14
Creating AMGLevel 
14 Level construction complete
PCGAMG:  Solving for pcorr, Initial residual = 0, Final residual = 0, No Iterations 0
time step continuity errors : sum local = 0, global = 0, cumulative = 0
Courant Number mean: 0 max: 0 velocity magnitude: 0

Starting time loop

Courant Number mean: 0 max: 0 velocity magnitude: 0
Time = 0.001

MULES: Solving for alpha1
Liquid phase volume fraction = 0.00275421  Min(alpha1) = 0  Max(alpha1) = 1
MULES: Solving for alpha1
Liquid phase volume fraction = 0.00275421  Min(alpha1) = 0  Max(alpha1) = 1
[1] Building level 0
Created persistent data with name pd
[0] Building level 0
[2] Building level 0
[3] Building level 0
Creating AMGLevel 
[1] Building level 1
[0] Building level 1
[3] Building level 1
[2] Building level 1
Creating AMGLevel 
[2] Building level 2
[0] Building level 2
[1] Building level 2
[3] Building level 2
Creating AMGLevel 
[2] Building level 3
[0] Building level 3
[1] Building level 3
[3] Building level 3
[2] Building level 4
Creating AMGLevel 
[0] Building level 4
[1] Building level 4
[3] Building level 4
[2] Building level 5
Creating AMGLevel 
[0] Building level 5
[1] Building level 5
[3] Building level 5
[2] Building level 6
Creating AMGLevel 
[0] Building level 6
[1] Building level 6
[3] Building level 6
[2] Building level 7
Creating AMGLevel 
[0] Building level 7
[1] Building level 7
[3] Building level 7
[2] Building level 8
Creating AMGLevel 
[0] Building level 8
[2] Building level 9
[1] Building level 8
[3] Building level 8
[2] Building level 10
Creating AMGLevel 
[0] Building level 9
[2] Building level 11
[1] Building level 9
[2] Building level 12
[2] Building level 13
Creating AMGLevel 
[0] Building level 10
[2] Building level 14
[3] Building level 9
Creating AMGLevel 
[0] Building level 11
[1] Building level 10
Creating AMGLevel 
[0] Building level 12
Creating AMGLevel 
[0] Building level 13
[1] Building level 11
Creating AMGLevel 
[0] Building level 14
[3] Building level 10
[1] Building level 12
Creating AMGLevel 
14 Level construction complete
[1] Building level 13
[3] Building level 11
[1] Building level 14
[3] Building level 12
[3] Building level 13
[3] Building level 14
GPU: 1 iters: 0.508919 s: 1.28594 GB/s
PCGAMG:  Solving for pd, Initial residual = 1, Final residual = 0.0347806, No Iterations 1
[1] Building level 0
[2] Building level 0
[3] Building level 0
[0] Building level 0
[2] Building level 1
[0] Building level 1
[1] Building level 1
[3] Building level 1
[2] Building level 2
[1] Building level 2
[0] Building level 2
[3] Building level 2
[2] Building level 3
[3] Building level 3
[1] Building level 3
[0] Building level 3
[2] Building level 4
[1] Building level 4
[3] Building level 4
[0] Building level 4
[2] Building level 5
[1] Building level 5
[0] Building level 5
[3] Building level 5
[2] Building level 6
[1] Building level 6
[3] Building level 6
[0] Building level 6
[2] Building level 7
[2] Building level 8
[1] Building level 7
[3] Building level 7
[0] Building level 7
[2] Building level 9
[2] Building level 10
[2] Building level 11
[2] Building level 12
[1] Building level 8
[2] Building level 13
[2] Building level 14
[3] Building level 8
[0] Building level 8
[1] Building level 9
[3] Building level 9
[1] Building level 10
[0] Building level 9
[1] Building level 11
[1] Building level 12
[1] Building level 13
[3] Building level 10
[1] Building level 14
[0] Building level 10
[3] Building level 11
[3] Building level 12
[0] Building level 11
[3] Building level 13
[3] Building level 14
[0] Building level 12
[0] Building level 13
[0] Building level 14
14 Level construction complete
GPU: 3 iters: 1.00001 s: 1.96329 GB/s
PCGAMG:  Solving for pd, Initial residual = 0.0222775, Final residual = 0.000980211, No Iterations 3
[1] Building level 0
[3] Building level 0
[2] Building level 0
[0] Building level 0
[3] Building level 1
[2] Building level 1
[1] Building level 1
[0] Building level 1
[2] Building level 2
[3] Building level 2
[1] Building level 2
[0] Building level 2
[2] Building level 3
[3] Building level 3
[1] Building level 3
[0] Building level 3
[2] Building level 4
[3] Building level 4
[1] Building level 4
[0] Building level 4
[2] Building level 5
[3] Building level 5
[1] Building level 5
[0] Building level 5
[2] Building level 6
[3] Building level 6
[1] Building level 6
[0] Building level 6
[2] Building level 7
[2] Building level 8
[3] Building level 7
[1] Building level 7
[2] Building level 9
[2] Building level 10
[0] Building level 7
[2] Building level 11
[2] Building level 12
[2] Building level 13
[2] Building level 14
[3] Building level 8
[1] Building level 8
[3] Building level 9
[1] Building level 9
[0] Building level 8
[3] Building level 10
[1] Building level 10
[3] Building level 11
[1] Building level 11
[3] Building level 12
[3] Building level 13
[1] Building level 12
[3] Building level 14
[1] Building level 13
[1] Building level 14
[0] Building level 9
[0] Building level 10
[0] Building level 11
[0] Building level 12
[0] Building level 13
[0] Building level 14
14 Level construction complete
GPU: 19 iters: 4.80946 s: 2.58539 GB/s
PCGAMG:  Solving for pd, Initial residual = 0.00562785, Final residual = 8.89422e-08, No Iterations 19
time step continuity errors : sum local = 6.61568e-12, global = -5.60587e-26, cumulative = -5.60587e-26
ExecutionTime = 128.05 s  ClockTime = 138 s

Courant Number mean: 4.86854e-06 max: 0.00215808 velocity magnitude: 0.03372
Time = 0.002

MULES: Solving for alpha1
Liquid phase volume fraction = 0.00275421  Min(alpha1) = 0  Max(alpha1) = 1
MULES: Solving for alpha1
Liquid phase volume fraction = 0.00275421  Min(alpha1) = 0  Max(alpha1) = 1
[2] Building level 0
[1] Building level 0
[3] Building level 0
[0] Building level 0
[2] Building level 1
[1] Building level 1
[0] Building level 1
Reconstruction on level 1
[3] Building level 1
[3] Building level 2
Creating AMGLevel 
[2] Building level 2
[1] Building level 2
[0] Building level 2
Reconstruction on level 2
[3] Building level 3
Creating AMGLevel 
[1] Building level 3
[0] Building level 3
Reconstruction on level 3
[2] Building level 3
[1] Building level 4
[3] Building level 4
Creating AMGLevel 
[0] Building level 4
Reconstruction on level 4
[2] Building level 4
[1] Building level 5
[3] Building level 5
Creating AMGLevel 
[0] Building level 5
Reconstruction on level 5
[2] Building level 5
[1] Building level 6
[3] Building level 6
Creating AMGLevel 
[0] Building level 6
Reconstruction on level 6
[2] Building level 6
[1] Building level 7
[1] Building level 8
[3] Building level 7
Creating AMGLevel 
[0] Building level 7
Reconstruction on level 7
[1] Building level 9
[2] Building level 7
[1] Building level 10
[1] Building level 11
[3] Building level 8
[1] Building level 12
Creating AMGLevel 
[1] Building level 13
[0] Building level 8
Reconstruction on level 8
[1] Building level 14
[3] Building level 9
[2] Building level 8
Creating AMGLevel 
[0] Building level 9
Reconstruction on level 9
[3] Building level 10
[3] Building level 11
Creating AMGLevel 
[0] Building level 10
Reconstruction on level 10
[3] Building level 12
[3] Building level 13
[2] Building level 9
Creating AMGLevel 
[0] Building level 11
Reconstruction on level 11
[3] Building level 14
Creating AMGLevel 
[0] Building level 12
Reconstruction on level 12
Creating AMGLevel 
[0] Building level 13
Reconstruction on level 13
Creating AMGLevel 
[0] Building level 14
Reconstruction on level 14
[2] Building level 10
Creating AMGLevel 
14 Level construction complete
[2] Building level 11
[2] Building level 12
[2] Building level 13
[2] Building level 14
GPU: 3 iters: 0.957005 s: 2.05152 GB/s
PCGAMG:  Solving for pd, Initial residual = 0.00352166, Final residual = 0.000124251, No Iterations 3
[3] Building level 0
[1] Building level 0
[2] Building level 0
[0] Building level 0
[0] Building level 1
[3] Building level 1
[1] Building level 1
[2] Building level 1
[1] Building level 2
[2] Building level 2
[0] Building level 2
[3] Building level 2
[1] Building level 3
[3] Building level 3
[2] Building level 3
[0] Building level 3
[1] Building level 4
[0] Building level 4
[3] Building level 4
[2] Building level 4
[1] Building level 5
[0] Building level 5
[3] Building level 5
[2] Building level 5
[1] Building level 6
[0] Building level 6
[1] Building level 7
[0] Building level 7
[3] Building level 6
[1] Building level 8
[2] Building level 6
[1] Building level 9
[0] Building level 8
[1] Building level 10
[1] Building level 11
[1] Building level 12
[1] Building level 13
[1] Building level 14
[0] Building level 9
[0] Building level 10
[0] Building level 11
[0] Building level 12
[0] Building level 13
[3] Building level 7
[0] Building level 14
14 Level construction complete
[2] Building level 7
[3] Building level 8
[2] Building level 8
[3] Building level 9
[3] Building level 10
[2] Building level 9
[3] Building level 11
[3] Building level 12
[3] Building level 13
[3] Building level 14
[2] Building level 10
[2] Building level 11
[2] Building level 12
[2] Building level 13
[2] Building level 14
GPU: 4 iters: 1.18502 s: 2.20904 GB/s
PCGAMG:  Solving for pd, Initial residual = 0.0020971, Final residual = 6.87639e-05, No Iterations 4
[3] Building level 0
[0] Building level 0
[1] Building level 0
[2] Building level 0
[3] Building level 1
[2] Building level 1
[0] Building level 1
[1] Building level 1
[2] Building level 2
[1] Building level 2
[3] Building level 2
[0] Building level 2
[2] Building level 3
[1] Building level 3
[3] Building level 3
[0] Building level 3
[1] Building level 4
[0] Building level 4
[2] Building level 4
[3] Building level 4
[1] Building level 5
[0] Building level 5
[2] Building level 5
[1] Building level 6
[3] Building level 5
[1] Building level 7
[0] Building level 6
[2] Building level 6
[1] Building level 8
[1] Building level 9
[1] Building level 10
[1] Building level 11
[0] Building level 7
[3] Building level 6
[1] Building level 12
[1] Building level 13
[1] Building level 14
[2] Building level 7
[0] Building level 8
[0] Building level 9
[0] Building level 10
[0] Building level 11
[0] Building level 12
[2] Building level 8
[0] Building level 13
[0] Building level 14
[3] Building level 7
14 Level construction complete
[2] Building level 9
[2] Building level 10
[2] Building level 11
[2] Building level 12
[2] Building level 13
[2] Building level 14
[3] Building level 8
[3] Building level 9
[3] Building level 10
[3] Building level 11
[3] Building level 12
[3] Building level 13
[3] Building level 14
GPU: 23 iters: 5.81337 s: 2.58922 GB/s
PCGAMG:  Solving for pd, Initial residual = 0.0019277, Final residual = 8.74338e-08, No Iterations 23
time step continuity errors : sum local = 4.09869e-12, global = -1.05247e-25, cumulative = -1.61306e-25
ExecutionTime = 185.41 s  ClockTime = 197 s

Courant Number mean: 7.66797e-06 max: 0.00313193 velocity magnitude: 0.0489364
Time = 0.003

MULES: Solving for alpha1
Liquid phase volume fraction = 0.00275421  Min(alpha1) = -1.09573e-30  Max(alpha1) = 1
MULES: Solving for alpha1
Liquid phase volume fraction = 0.00275421  Min(alpha1) = -6.38208e-30  Max(alpha1) = 1
[1] Building level 0
[3] Building level 0
[2] Building level 0
[0] Building level 0
[3] Building level 1
[0] Building level 1
[1] Building level 1
[2] Building level 1
[1] Building level 2
[2] Building level 2
[0] Building level 2
Reconstruction on level 2
Creating AMGLevel 
[0] Building level 3
Reconstruction on level 3
[1] Building level 3
[2] Building level 3
[3] Building level 2
[1] Building level 4
Creating AMGLevel 
[0] Building level 4
Reconstruction on level 4
[2] Building level 4
[1] Building level 5
Creating AMGLevel 
[0] Building level 5
Reconstruction on level 5
[2] Building level 5
[3] Building level 3
[1] Building level 6
Creating AMGLevel 
[0] Building level 6
Reconstruction on level 6
[2] Building level 6
[1] Building level 7
Creating AMGLevel 
[0] Building level 7
Reconstruction on level 7
[1] Building level 8
[2] Building level 7
[1] Building level 9
Creating AMGLevel 
[0] Building level 8
Reconstruction on level 8
[1] Building level 10
[1] Building level 11
Creating AMGLevel 
[0] Building level 9
Reconstruction on level 9
[1] Building level 12
[1] Building level 13
[1] Building level 14
[2] Building level 8
Creating AMGLevel 
[0] Building level 10
Reconstruction on level 10
Creating AMGLevel 
[0] Building level 11
Reconstruction on level 11
Creating AMGLevel 
[0] Building level 12
Reconstruction on level 12
Creating AMGLevel 
[0] Building level 13
Reconstruction on level 13
Creating AMGLevel 
[0] Building level 14
Reconstruction on level 14
Creating AMGLevel 
14 Level construction complete
[2] Building level 9
[2] Building level 10
[2] Building level 11
[2] Building level 12
[2] Building level 13
[2] Building level 14
[3] Building level 4
[3] Building level 5
[3] Building level 6
[3] Building level 7
[3] Building level 8
[3] Building level 9
[3] Building level 10
[3] Building level 11
[3] Building level 12
[3] Building level 13
[3] Building level 14
GPU: 4 iters: 1.18311 s: 2.21261 GB/s
PCGAMG:  Solving for pd, Initial residual = 0.00425377, Final residual = 0.000174513, No Iterations 4
[2] Building level 0
[0] Building level 0
[1] Building level 0
[3] Building level 0
[3] Building level 1
[2] Building level 1
[0] Building level 1
[1] Building level 1
[2] Building level 2
[1] Building level 2
[0] Building level 2
[3] Building level 2
[2] Building level 3
[1] Building level 3
[3] Building level 3
[0] Building level 3
[1] Building level 4
[2] Building level 4
[0] Building level 4
[3] Building level 4
[1] Building level 5
[2] Building level 5
[0] Building level 5
[1] Building level 6
[3] Building level 5
[1] Building level 7
[2] Building level 6
[0] Building level 6
[1] Building level 8
[1] Building level 9
[1] Building level 10
[1] Building level 11
[1] Building level 12
[1] Building level 13
[1] Building level 14
[3] Building level 6
[2] Building level 7
[0] Building level 7
[2] Building level 8
[0] Building level 8
[2] Building level 9
[3] Building level 7
[2] Building level 10
[0] Building level 9
[2] Building level 11
[2] Building level 12
[2] Building level 13
[2] Building level 14
[0] Building level 10
[0] Building level 11
[0] Building level 12
[0] Building level 13
[0] Building level 14
14 Level construction complete
[3] Building level 8
[3] Building level 9
[3] Building level 10
[3] Building level 11
[3] Building level 12
[3] Building level 13
[3] Building level 14
GPU: 4 iters: 1.17727 s: 2.22357 GB/s
PCGAMG:  Solving for pd, Initial residual = 0.00305975, Final residual = 0.000124424, No Iterations 4
[3] Building level 0
[1] Building level 0
[2] Building level 0
[0] Building level 0
[3] Building level 1
[2] Building level 1
[0] Building level 1
[1] Building level 1
[2] Building level 2
[1] Building level 2
[3] Building level 2
[0] Building level 2
[2] Building level 3
[1] Building level 3
[3] Building level 3
[0] Building level 3
[1] Building level 4
[2] Building level 4
[0] Building level 4
[3] Building level 4
[1] Building level 5
[2] Building level 5
[0] Building level 5
[1] Building level 6
[3] Building level 5
[1] Building level 7
[2] Building level 6
[0] Building level 6
[1] Building level 8
[1] Building level 9
[1] Building level 10
[1] Building level 11
[1] Building level 12
[1] Building level 13
[1] Building level 14
[3] Building level 6
[2] Building level 7
[0] Building level 7
[2] Building level 8
[0] Building level 8
[2] Building level 9
[3] Building level 7
[2] Building level 10
[0] Building level 9
[2] Building level 11
[2] Building level 12
[2] Building level 13
[2] Building level 14
[0] Building level 10
[0] Building level 11
[0] Building level 12
[0] Building level 13
[0] Building level 14
14 Level construction complete
[3] Building level 8
[3] Building level 9
[3] Building level 10
[3] Building level 11
[3] Building level 12
[3] Building level 13
[3] Building level 14
GPU: 19 iters: 4.82472 s: 2.57721 GB/s
PCGAMG:  Solving for pd, Initial residual = 0.00262567, Final residual = 9.19905e-08, No Iterations 19
time step continuity errors : sum local = 4.31207e-12, global = 2.349e-24, cumulative = 2.1877e-24
ExecutionTime = 241.22 s  ClockTime = 253 s

Courant Number mean: 1.35656e-05 max: 0.00482505 velocity magnitude: 0.0753914
Time = 0.004

MULES: Solving for alpha1
Liquid phase volume fraction = 0.00275421  Min(alpha1) = -3.54534e-30  Max(alpha1) = 1
MULES: Solving for alpha1
Liquid phase volume fraction = 0.00275421  Min(alpha1) = -2.11809e-31  Max(alpha1) = 1
[0] Building level 0
[1] Building level 0
[2] Building level 0
[3] Building level 0
[3] Building level 1
[2] Building level 1
[0] Building level 1
[1] Building level 1
[2] Building level 2
[1] Building level 2
[0] Building level 2
Reconstruction on level 2
[2] Building level 3
Creating AMGLevel 
[1] Building level 3
[0] Building level 3
Reconstruction on level 3
[3] Building level 2
[1] Building level 4
Creating AMGLevel 
[0] Building level 4
Reconstruction on level 4
[2] Building level 4
[1] Building level 5
Creating AMGLevel 
[0] Building level 5
Reconstruction on level 5
[2] Building level 5
[3] Building level 3
[1] Building level 6
Creating AMGLevel 
[0] Building level 6
Reconstruction on level 6
[2] Building level 6
[1] Building level 7
Creating AMGLevel 
[0] Building level 7
Reconstruction on level 7
[2] Building level 7
[1] Building level 8
Creating AMGLevel 
[0] Building level 8
Reconstruction on level 8
[1] Building level 9
[2] Building level 8
[1] Building level 10
Creating AMGLevel 
[0] Building level 9
Reconstruction on level 9
[1] Building level 11
[1] Building level 12
[1] Building level 13
[2] Building level 9
Creating AMGLevel 
[0] Building level 10
Reconstruction on level 10
[1] Building level 14
Creating AMGLevel 
[0] Building level 11
Reconstruction on level 11
[2] Building level 10
Creating AMGLevel 
[0] Building level 12
Reconstruction on level 12
Creating AMGLevel 
[0] Building level 13
Reconstruction on level 13
Creating AMGLevel 
[0] Building level 14
Reconstruction on level 14
[2] Building level 11
Creating AMGLevel 
14 Level construction complete
[2] Building level 12
[2] Building level 13
[2] Building level 14
[3] Building level 4
[3] Building level 5
[3] Building level 6
[3] Building level 7
[3] Building level 8
[3] Building level 9
[3] Building level 10
[3] Building level 11
[3] Building level 12
[3] Building level 13
[3] Building level 14
GPU: 4 iters: 1.16962 s: 2.23812 GB/s
PCGAMG:  Solving for pd, Initial residual = 0.00344005, Final residual = 0.00011108, No Iterations 4
[2] Building level 0
[1] Building level 0
[3] Building level 0
[0] Building level 0
[3] Building level 1
[2] Building level 1
[0] Building level 1
[1] Building level 1
[2] Building level 2
[1] Building level 2
[3] Building level 2
[0] Building level 2
[1] Building level 3
[2] Building level 3
[3] Building level 3
[0] Building level 3
[1] Building level 4
[0] Building level 4
[2] Building level 4
[3] Building level 4
[1] Building level 5
[0] Building level 5
[2] Building level 5
[3] Building level 5
[1] Building level 6
[1] Building level 7
[0] Building level 6
[1] Building level 8
[1] Building level 9
[2] Building level 6
[1] Building level 10
[3] Building level 6
[1] Building level 11
[1] Building level 12
[1] Building level 13
[1] Building level 14
[0] Building level 7
[2] Building level 7
[0] Building level 8
[3] Building level 7
[0] Building level 9
[2] Building level 8
[0] Building level 10
[0] Building level 11
[0] Building level 12
[0] Building level 13
[0] Building level 14
14 Level construction complete
[3] Building level 8
[2] Building level 9
[2] Building level 10
[3] Building level 9
[2] Building level 11
[2] Building level 12
[2] Building level 13
[2] Building level 14
[3] Building level 10
[3] Building level 11
[3] Building level 12
[3] Building level 13
[3] Building level 14
GPU: 5 iters: 1.39894 s: 2.33905 GB/s
PCGAMG:  Solving for pd, Initial residual = 0.00317916, Final residual = 0.000135856, No Iterations 5
[3] Building level 0
[0] Building level 0
[2] Building level 0
[1] Building level 0
[2] Building level 1
[3] Building level 1
[0] Building level 1
[1] Building level 1
[2] Building level 2
[1] Building level 2
[3] Building level 2
[0] Building level 2
[1] Building level 3
[2] Building level 3
[3] Building level 3
[0] Building level 3
[1] Building level 4
[0] Building level 4
[2] Building level 4
[3] Building level 4
[1] Building level 5
[0] Building level 5
[2] Building level 5
[1] Building level 6
[3] Building level 5
[1] Building level 7
[0] Building level 6
[1] Building level 8
[1] Building level 9
[2] Building level 6
[1] Building level 10
[1] Building level 11
[1] Building level 12
[3] Building level 6
[1] Building level 13
[1] Building level 14
[0] Building level 7
[2] Building level 7
[0] Building level 8
[3] Building level 7
[0] Building level 9
[2] Building level 8
[0] Building level 10
[0] Building level 11
[0] Building level 12
[0] Building level 13
[0] Building level 14
14 Level construction complete
[2] Building level 9
[3] Building level 8
[2] Building level 10
[2] Building level 11
[3] Building level 9
[2] Building level 12
[2] Building level 13
[2] Building level 14
[3] Building level 10
[3] Building level 11
[3] Building level 12
[3] Building level 13
[3] Building level 14
GPU: 38 iters: 8.97097 s: 2.77212 GB/s
PCGAMG:  Solving for pd, Initial residual = 0.00242528, Final residual = 9.65361e-08, No Iterations 38
time step continuity errors : sum local = 4.5171e-12, global = 3.2801e-24, cumulative = 5.4678e-24
ExecutionTime = 301.35 s  ClockTime = 314 s

Courant Number mean: 1.92421e-05 max: 0.00597577 velocity magnitude: 0.0933713
Time = 0.005

MULES: Solving for alpha1
Liquid phase volume fraction = 0.00275421  Min(alpha1) = -2.20075e-29  Max(alpha1) = 1
MULES: Solving for alpha1
Liquid phase volume fraction = 0.00275421  Min(alpha1) = -1.34248e-30  Max(alpha1) = 1
[3] Building level 0
[2] Building level 0
[0] Building level 0
[1] Building level 0
[3] Building level 1
[2] Building level 1
[0] Building level 1
Reconstruction on level 1
[1] Building level 1
[1] Building level 2
[1] Building level 3
[3] Building level 2
Creating AMGLevel 
[0] Building level 2
[2] Building level 2
[0] Building level 3
Reconstruction on level 3
[1] Building level 4
[1] Building level 5
Creating AMGLevel 
[0] Building level 4
Reconstruction on level 4
[3] Building level 3
[2] Building level 3
[1] Building level 6
[1] Building level 7
[1] Building level 8
[1] Building level 9
Creating AMGLevel 
[0] Building level 5
Reconstruction on level 5
[1] Building level 10
[1] Building level 11
[1] Building level 12
[1] Building level 13
[1] Building level 14
Creating AMGLevel 
[0] Building level 6
Reconstruction on level 6
[3] Building level 4
[2] Building level 4
Creating AMGLevel 
[0] Building level 7
Reconstruction on level 7
Creating AMGLevel 
[0] Building level 8
Reconstruction on level 8
Creating AMGLevel 
[0] Building level 9
Reconstruction on level 9
Creating AMGLevel 
[0] Building level 10
Reconstruction on level 10
Creating AMGLevel 
[0] Building level 11
Reconstruction on level 11
Creating AMGLevel 
[0] Building level 12
Reconstruction on level 12
Creating AMGLevel 
[0] Building level 13
Reconstruction on level 13
Creating AMGLevel 
[0] Building level 14
Reconstruction on level 14
Creating AMGLevel 
14 Level construction complete
[3] Building level 5
[2] Building level 5
[3] Building level 6
[2] Building level 6
[3] Building level 7
[2] Building level 7
[3] Building level 8
[2] Building level 8
[3] Building level 9
[3] Building level 10
[3] Building level 11
[2] Building level 9
[3] Building level 12
[3] Building level 13
[3] Building level 14
[2] Building level 10
[2] Building level 11
[2] Building level 12
[2] Building level 13
[2] Building level 14
GPU: 4 iters: 1.16079 s: 2.25514 GB/s
PCGAMG:  Solving for pd, Initial residual = 0.00216779, Final residual = 8.63783e-05, No Iterations 4
[3] Building level 0
[2] Building level 0
[1] Building level 0
[0] Building level 0
[2] Building level 1
[1] Building level 1
[3] Building level 1
[0] Building level 1
[1] Building level 2
[0] Building level 2
[2] Building level 2
[3] Building level 2
[1] Building level 3
[0] Building level 3
[3] Building level 3
[2] Building level 3
[1] Building level 4
[0] Building level 4
[2] Building level 4
[3] Building level 4
[1] Building level 5
[0] Building level 5
[2] Building level 5
[1] Building level 6
[3] Building level 5
[0] Building level 6
[1] Building level 7
[1] Building level 8
[1] Building level 9
[0] Building level 7
[2] Building level 6
[1] Building level 10
[3] Building level 6
[1] Building level 11
[1] Building level 12
[1] Building level 13
[1] Building level 14
[0] Building level 8
[0] Building level 9
[0] Building level 10
[0] Building level 11
[0] Building level 12
[0] Building level 13
[0] Building level 14
14 Level construction complete
[2] Building level 7
[3] Building level 7
[2] Building level 8
[3] Building level 8
[2] Building level 9
[3] Building level 9
[2] Building level 10
[3] Building level 10
[2] Building level 11
[3] Building level 11
[2] Building level 12
[2] Building level 13
[3] Building level 12
[2] Building level 14
[3] Building level 13
[3] Building level 14
GPU: 5 iters: 1.38706 s: 2.35908 GB/s
PCGAMG:  Solving for pd, Initial residual = 0.00179139, Final residual = 6.74288e-05, No Iterations 5
[1] Building level 0
[3] Building level 0
[2] Building level 0
[0] Building level 0
[3] Building level 1
[0] Building level 1
[2] Building level 1
[1] Building level 1
[0] Building level 2
[1] Building level 2
[3] Building level 2
[2] Building level 2
[0] Building level 3
[1] Building level 3
[3] Building level 3
[2] Building level 3
[1] Building level 4
[0] Building level 4
[2] Building level 4
[3] Building level 4
[1] Building level 5
[0] Building level 5
[2] Building level 5
[3] Building level 5
[1] Building level 6
[0] Building level 6
[1] Building level 7
[1] Building level 8
[0] Building level 7
[1] Building level 9
[3] Building level 6
[2] Building level 6
[1] Building level 10
[1] Building level 11
[1] Building level 12
[1] Building level 13
[1] Building level 14
[0] Building level 8
[0] Building level 9
[0] Building level 10
[0] Building level 11
[0] Building level 12
[0] Building level 13
[0] Building level 14
14 Level construction complete
[3] Building level 7
[2] Building level 7
[3] Building level 8
[2] Building level 8
[3] Building level 9
[2] Building level 9
[3] Building level 10
[3] Building level 11
[2] Building level 10
[3] Building level 12
[3] Building level 13
[3] Building level 14
[2] Building level 11
[2] Building level 12
[2] Building level 13
[2] Building level 14
GPU: 26 iters: 6.36015 s: 2.67531 GB/s
PCGAMG:  Solving for pd, Initial residual = 0.00144558, Final residual = 8.67951e-08, No Iterations 26
time step continuity errors : sum local = 4.05098e-12, global = -1.35102e-24, cumulative = 4.11678e-24
ExecutionTime = 359.74 s  ClockTime = 374 s

Courant Number mean: 2.43821e-05 max: 0.00683537 velocity magnitude: 0.106803
Time = 0.006

MULES: Solving for alpha1
Liquid phase volume fraction = 0.00275421  Min(alpha1) = -1.59074e-30  Max(alpha1) = 1
MULES: Solving for alpha1
Liquid phase volume fraction = 0.00275421  Min(alpha1) = -2.04867e-30  Max(alpha1) = 1
[0] Building level 0
[1] Building level 0
[3] Building level 0
[2] Building level 0
[0] Building level 1
Reconstruction on level 1
[3] Building level 1
[2] Building level 1
[1] Building level 1
[1] Building level 2
[1] Building level 3
Creating AMGLevel 
[2] Building level 2
[0] Building level 2
Reconstruction on level 2
[3] Building level 2
[1] Building level 4
[1] Building level 5
Creating AMGLevel 
[0] Building level 3
Reconstruction on level 3
[2] Building level 3
[3] Building level 3
[1] Building level 6
[1] Building level 7
[1] Building level 8
[1] Building level 9
[1] Building level 10
[1] Building level 11
[1] Building level 12
[1] Building level 13
[1] Building level 14
Creating AMGLevel 
[2] Building level 4
[3] Building level 4
[0] Building level 4
Reconstruction on level 4
Creating AMGLevel 
[2] Building level 5
[0] Building level 5
Reconstruction on level 5
[3] Building level 5
Creating AMGLevel 
[2] Building level 6
[0] Building level 6
Reconstruction on level 6
[3] Building level 6
Creating AMGLevel 
[0] Building level 7
Reconstruction on level 7
[2] Building level 7
[3] Building level 7
Creating AMGLevel 
[0] Building level 8
Reconstruction on level 8
[2] Building level 8
[3] Building level 8
Creating AMGLevel 
[0] Building level 9
Reconstruction on level 9
[2] Building level 9
[3] Building level 9
Creating AMGLevel 
[0] Building level 10
Reconstruction on level 10
[2] Building level 10
[3] Building level 10
[2] Building level 11
Creating AMGLevel 
[0] Building level 11
Reconstruction on level 11
[3] Building level 11
[2] Building level 12
Creating AMGLevel 
[0] Building level 12
Reconstruction on level 12
[2] Building level 13
[3] Building level 12
Creating AMGLevel 
[0] Building level 13
Reconstruction on level 13
[2] Building level 14
Creating AMGLevel 
[0] Building level 14
Reconstruction on level 14
[3] Building level 13
Creating AMGLevel 
14 Level construction complete
[3] Building level 14
GPU: 5 iters: 1.45591 s: 2.24751 GB/s
PCGAMG:  Solving for pd, Initial residual = 0.00227748, Final residual = 8.49769e-05, No Iterations 5
[0] Building level 0
[3] Building level 0
[1] Building level 0
[2] Building level 0
[2] Building level 1
[3] Building level 1
[0] Building level 1
[1] Building level 1
[2] Building level 2
[0] Building level 2
[1] Building level 2
[3] Building level 2
[0] Building level 3
[2] Building level 3
[1] Building level 3
[3] Building level 3
[1] Building level 4
[0] Building level 4
[2] Building level 4
[3] Building level 4
[1] Building level 5
[0] Building level 5
[2] Building level 5
[3] Building level 5
[1] Building level 6
[0] Building level 6
[2] Building level 6
[1] Building level 7
[0] Building level 7
[1] Building level 8
[1] Building level 9
[0] Building level 8
[2] Building level 7
[3] Building level 6
[1] Building level 10
[1] Building level 11
[1] Building level 12
[1] Building level 13
[1] Building level 14
[0] Building level 9
[0] Building level 10
[0] Building level 11
[0] Building level 12
[2] Building level 8
[0] Building level 13
[0] Building level 14
14 Level construction complete
[2] Building level 9
[2] Building level 10
[2] Building level 11
[2] Building level 12
[2] Building level 13
[2] Building level 14
[3] Building level 7
[3] Building level 8
[3] Building level 9
[3] Building level 10
[3] Building level 11
[3] Building level 12
[3] Building level 13
[3] Building level 14
GPU: 5 iters: 1.53472 s: 2.13211 GB/s
PCGAMG:  Solving for pd, Initial residual = 0.00116776, Final residual = 4.09457e-05, No Iterations 5
[1] Building level 0
[2] Building level 0
[0] Building level 0
[3] Building level 0
[3] Building level 1
[2] Building level 1
[0] Building level 1
[1] Building level 1
[2] Building level 2
[0] Building level 2
[1] Building level 2
[3] Building level 2
[0] Building level 3
[2] Building level 3
[1] Building level 3
[3] Building level 3
[1] Building level 4
[0] Building level 4
[2] Building level 4
[3] Building level 4
[1] Building level 5
[0] Building level 5
[2] Building level 5
[3] Building level 5
[1] Building level 6
[0] Building level 6
[2] Building level 6
[1] Building level 7
[3] Building level 6
[0] Building level 7
[1] Building level 8
[1] Building level 9
[2] Building level 7
[0] Building level 8
[1] Building level 10
[1] Building level 11
[1] Building level 12
[1] Building level 13
[1] Building level 14
[0] Building level 9
[0] Building level 10
[2] Building level 8
[0] Building level 11
[3] Building level 7
[0] Building level 12
[0] Building level 13
[0] Building level 14
14 Level construction complete
[2] Building level 9
[2] Building level 10
[2] Building level 11
[2] Building level 12
[2] Building level 13
[2] Building level 14
[3] Building level 8
[3] Building level 9
[3] Building level 10
[3] Building level 11
[3] Building level 12
[3] Building level 13
[3] Building level 14
GPU: 41 iters: 10.2904 s: 2.60748 GB/s
PCGAMG:  Solving for pd, Initial residual = 0.000710167, Final residual = 9.15829e-08, No Iterations 41
time step continuity errors : sum local = 4.25867e-12, global = 2.54042e-24, cumulative = 6.6572e-24
ExecutionTime = 421.96 s  ClockTime = 437 s

Courant Number mean: 2.94978e-05 max: 0.0076386 velocity magnitude: 0.119353
Time = 0.007

MULES: Solving for alpha1
Liquid phase volume fraction = 0.00275421  Min(alpha1) = -2.40405e-30  Max(alpha1) = 1
MULES: Solving for alpha1
Liquid phase volume fraction = 0.00275421  Min(alpha1) = -4.93533e-30  Max(alpha1) = 1
[1] Building level 0
[3] Building level 0
[2] Building level 0
[0] Building level 0
[2] Building level 1
[1] Building level 1
[0] Building level 1
Reconstruction on level 1
[3] Building level 1
[1] Building level 2
[1] Building level 3
Creating AMGLevel 
[0] Building level 2
Reconstruction on level 2
[2] Building level 2
[3] Building level 2
[1] Building level 4
[1] Building level 5
Creating AMGLevel 
[0] Building level 3
Reconstruction on level 3
[2] Building level 3
[3] Building level 3
[1] Building level 6
[1] Building level 7
[1] Building level 8
[1] Building level 9
[1] Building level 10
[1] Building level 11
[1] Building level 12
[1] Building level 13
[1] Building level 14
Creating AMGLevel 
[0] Building level 4
Reconstruction on level 4
[2] Building level 4
[3] Building level 4
Creating AMGLevel 
[0] Building level 5
Reconstruction on level 5
[2] Building level 5
[3] Building level 5
Creating AMGLevel 
[0] Building level 6
Reconstruction on level 6
[2] Building level 6
[3] Building level 6
Creating AMGLevel 
[0] Building level 7
Reconstruction on level 7
[2] Building level 7
[3] Building level 7
Creating AMGLevel 
[0] Building level 8
Reconstruction on level 8
Creating AMGLevel 
[0] Building level 9
Reconstruction on level 9
[2] Building level 8
[3] Building level 8
Creating AMGLevel 
[0] Building level 10
Reconstruction on level 10
Creating AMGLevel 
[0] Building level 11
Reconstruction on level 11
Creating AMGLevel 
[0] Building level 12
Reconstruction on level 12
[2] Building level 9
[3] Building level 9
Creating AMGLevel 
[0] Building level 13
Reconstruction on level 13
Creating AMGLevel 
[0] Building level 14
Reconstruction on level 14
Creating AMGLevel 
14 Level construction complete
[2] Building level 10
[3] Building level 10
[2] Building level 11
[3] Building level 11
[2] Building level 12
[3] Building level 12
[2] Building level 13
[3] Building level 13
[2] Building level 14
[3] Building level 14
GPU: 4 iters: 1.24802 s: 2.09752 GB/s
PCGAMG:  Solving for pd, Initial residual = 0.00232067, Final residual = 0.000115361, No Iterations 4
[0] Building level 0
[1] Building level 0
[2] Building level 0
[3] Building level 0
[3] Building level 1
[0] Building level 1
[2] Building level 1
[1] Building level 1
[1] Building level 2
[2] Building level 2
[3] Building level 2
[0] Building level 2
[1] Building level 3
[2] Building level 3
[3] Building level 3
[0] Building level 3
[1] Building level 4
[2] Building level 4
[0] Building level 4
[3] Building level 4
[1] Building level 5
[2] Building level 5
[0] Building level 5
[3] Building level 5
[1] Building level 6
[2] Building level 6
[0] Building level 6
[3] Building level 6
[1] Building level 7
[2] Building level 7
[1] Building level 8
[1] Building level 9
[0] Building level 7
[2] Building level 8
[1] Building level 10
[1] Building level 11
[3] Building level 7
[1] Building level 12
[1] Building level 13
[1] Building level 14
[2] Building level 9
[2] Building level 10
[0] Building level 8
[2] Building level 11
[2] Building level 12
[2] Building level 13
[2] Building level 14
[3] Building level 8
[0] Building level 9
[0] Building level 10
[3] Building level 9
[0] Building level 11
[0] Building level 12
[0] Building level 13
[0] Building level 14
14 Level construction complete
[3] Building level 10
[3] Building level 11
[3] Building level 12
[3] Building level 13
[3] Building level 14
GPU: 6 iters: 1.67396 s: 2.34572 GB/s
PCGAMG:  Solving for pd, Initial residual = 0.00110791, Final residual = 2.93316e-05, No Iterations 6
[1] Building level 0
[2] Building level 0
[3] Building level 0
[0] Building level 0
[2] Building level 1
[3] Building level 1
[0] Building level 1
[1] Building level 1
[2] Building level 2
[1] Building level 2
[3] Building level 2
[0] Building level 2
[2] Building level 3
[1] Building level 3
[3] Building level 3
[0] Building level 3
[1] Building level 4
[2] Building level 4
[3] Building level 4
[0] Building level 4
[1] Building level 5
[2] Building level 5
[3] Building level 5
[0] Building level 5
[1] Building level 6
[2] Building level 6
[3] Building level 6
[1] Building level 7
[2] Building level 7
[0] Building level 6
[1] Building level 8
[2] Building level 8
[1] Building level 9
[3] Building level 7
[1] Building level 10
[2] Building level 9
[1] Building level 11
[1] Building level 12
[1] Building level 13
[1] Building level 14
[2] Building level 10
[2] Building level 11
[2] Building level 12
[2] Building level 13
[3] Building level 8
[2] Building level 14
[0] Building level 7
[3] Building level 9
[3] Building level 10
[3] Building level 11
[3] Building level 12
[3] Building level 13
[3] Building level 14
[0] Building level 8
[0] Building level 9
[0] Building level 10
[0] Building level 11
[0] Building level 12
[0] Building level 13
[0] Building level 14
14 Level construction complete
GPU: 48 iters: 12.1304 s: 2.58961 GB/s
PCGAMG:  Solving for pd, Initial residual = 0.000530334, Final residual = 8.42075e-08, No Iterations 48
time step continuity errors : sum local = 3.90501e-12, global = -1.35847e-25, cumulative = 6.52135e-24
ExecutionTime = 486.8 s  ClockTime = 503 s

Courant Number mean: 3.46187e-05 max: 0.00834624 velocity magnitude: 0.13041
Time = 0.008

MULES: Solving for alpha1
Liquid phase volume fraction = 0.00275421  Min(alpha1) = -8.93305e-30  Max(alpha1) = 1
MULES: Solving for alpha1
Liquid phase volume fraction = 0.00275421  Min(alpha1) = -8.84707e-30  Max(alpha1) = 1
[0] Building level 0
[1] Building level 0
[3] Building level 0
[2] Building level 0
[2] Building level 1
[1] Building level 1
[3] Building level 1
[0] Building level 1
[2] Building level 2
[1] Building level 2
[0] Building level 2
Reconstruction on level 2
Creating AMGLevel 
[0] Building level 3
Reconstruction on level 3
[1] Building level 3
[2] Building level 3
[3] Building level 2
[2] Building level 4
Creating AMGLevel 
[0] Building level 4
Reconstruction on level 4
[1] Building level 4
[2] Building level 5
Creating AMGLevel 
[1] Building level 5
[0] Building level 5
Reconstruction on level 5
[3] Building level 3
[2] Building level 6
[1] Building level 6
Creating AMGLevel 
[0] Building level 6
Reconstruction on level 6
[2] Building level 7
[1] Building level 7
Creating AMGLevel 
[0] Building level 7
Reconstruction on level 7
[2] Building level 8
[1] Building level 8
Creating AMGLevel 
[0] Building level 8
Reconstruction on level 8
[2] Building level 9
[1] Building level 9
Creating AMGLevel 
[0] Building level 9
Reconstruction on level 9
[2] Building level 10
[1] Building level 10
Creating AMGLevel 
[0] Building level 10
Reconstruction on level 10
[2] Building level 11
[1] Building level 11
Creating AMGLevel 
[0] Building level 11
Reconstruction on level 11
[2] Building level 12
[1] Building level 12
[2] Building level 13
Creating AMGLevel 
[0] Building level 12
Reconstruction on level 12
[1] Building level 13
[2] Building level 14
Creating AMGLevel 
[0] Building level 13
Reconstruction on level 13
[1] Building level 14
Creating AMGLevel 
[0] Building level 14
Reconstruction on level 14
Creating AMGLevel 
14 Level construction complete
[3] Building level 4
[3] Building level 5
[3] Building level 6
[3] Building level 7
[3] Building level 8
[3] Building level 9
[3] Building level 10
[3] Building level 11
[3] Building level 12
[3] Building level 13
[3] Building level 14
GPU: 5 iters: 1.43881 s: 2.27423 GB/s
PCGAMG:  Solving for pd, Initial residual = 0.00235947, Final residual = 9.16349e-05, No Iterations 5
[0] Building level 0
[1] Building level 0
[2] Building level 0
[3] Building level 0
[0] Building level 1
[3] Building level 1
[2] Building level 1
[1] Building level 1
[1] Building level 2
[2] Building level 2
[3] Building level 2
[0] Building level 2
[2] Building level 3
[1] Building level 3
[0] Building level 3
[3] Building level 3
[1] Building level 4
[2] Building level 4
[0] Building level 4
[3] Building level 4
[1] Building level 5
[0] Building level 5
[2] Building level 5
[3] Building level 5
[1] Building level 6
[2] Building level 6
[0] Building level 6
[1] Building level 7
[3] Building level 6
[1] Building level 8
[2] Building level 7
[0] Building level 7
[1] Building level 9
[1] Building level 10
[1] Building level 11
[1] Building level 12
[1] Building level 13
[1] Building level 14
[2] Building level 8
[0] Building level 8
[3] Building level 7
[2] Building level 9
[0] Building level 9
[2] Building level 10
[0] Building level 10
[2] Building level 11
[2] Building level 12
[2] Building level 13
[0] Building level 11
[2] Building level 14
[0] Building level 12
[3] Building level 8
[0] Building level 13
[0] Building level 14
14 Level construction complete
[3] Building level 9
[3] Building level 10
[3] Building level 11
[3] Building level 12
[3] Building level 13
[3] Building level 14
GPU: 6 iters: 1.64931 s: 2.38076 GB/s
PCGAMG:  Solving for pd, Initial residual = 0.00105371, Final residual = 3.87203e-05, No Iterations 6
[3] Building level 0
[1] Building level 0
[2] Building level 0
[0] Building level 0
[2] Building level 1
[0] Building level 1
[1] Building level 1
[3] Building level 1
[1] Building level 2
[2] Building level 2
[0] Building level 2
[3] Building level 2
[1] Building level 3
[2] Building level 3
[0] Building level 3
[3] Building level 3
[1] Building level 4
[0] Building level 4
[2] Building level 4
[3] Building level 4
[1] Building level 5
[0] Building level 5
[2] Building level 5
[3] Building level 5
[1] Building level 6
[0] Building level 6
[1] Building level 7
[2] Building level 6
[1] Building level 8
[0] Building level 7
[3] Building level 6
[1] Building level 9
[1] Building level 10
[1] Building level 11
[1] Building level 12
[1] Building level 13
[1] Building level 14
[0] Building level 8
[2] Building level 7
[0] Building level 9
[0] Building level 10
[0] Building level 11
[0] Building level 12
[0] Building level 13
[0] Building level 14
14 Level construction complete
[3] Building level 7
[2] Building level 8
[2] Building level 9
[2] Building level 10
[3] Building level 8
[2] Building level 11
[2] Building level 12
[2] Building level 13
[2] Building level 14
[3] Building level 9
[3] Building level 10
[3] Building level 11
[3] Building level 12
[3] Building level 13
[3] Building level 14
GPU: 19 iters: 4.70991 s: 2.64003 GB/s
PCGAMG:  Solving for pd, Initial residual = 0.000450153, Final residual = 7.85428e-08, No Iterations 19
time step continuity errors : sum local = 3.62715e-12, global = -1.37658e-24, cumulative = 5.14477e-24
ExecutionTime = 543.76 s  ClockTime = 561 s

Courant Number mean: 3.97537e-05 max: 0.00903929 velocity magnitude: 0.140325
Time = 0.009

MULES: Solving for alpha1
Liquid phase volume fraction = 0.00275421  Min(alpha1) = -1.32485e-29  Max(alpha1) = 1
MULES: Solving for alpha1
Liquid phase volume fraction = 0.00275421  Min(alpha1) = -2.05613e-29  Max(alpha1) = 1
[2] Building level 0
[1] Building level 0
[3] Building level 0
[0] Building level 0
[3] Building level 1
[2] Building level 1
[1] Building level 1
[0] Building level 1
[0] Building level 2
Reconstruction on level 2
Creating AMGLevel 
[0] Building level 3
Reconstruction on level 3
[2] Building level 2
[1] Building level 2
[3] Building level 2
Creating AMGLevel 
[0] Building level 4
Reconstruction on level 4
Creating AMGLevel 
[0] Building level 5
Reconstruction on level 5
[1] Building level 3
[3] Building level 3
Creating AMGLevel 
[2] Building level 3
[0] Building level 6
Reconstruction on level 6
Creating AMGLevel 
[0] Building level 7
Reconstruction on level 7
Creating AMGLevel 
[0] Building level 8
Reconstruction on level 8
Creating AMGLevel 
[0] Building level 9
Reconstruction on level 9
Creating AMGLevel 
[0] Building level 10
Reconstruction on level 10
Creating AMGLevel 
[0] Building level 11
Reconstruction on level 11
Creating AMGLevel 
[0] Building level 12
Reconstruction on level 12
Creating AMGLevel 
[0] Building level 13
Reconstruction on level 13
Creating AMGLevel 
[0] Building level 14
Reconstruction on level 14
Creating AMGLevel 
14 Level construction complete
[1] Building level 4
[3] Building level 4
[2] Building level 4
[1] Building level 5
[3] Building level 5
[2] Building level 5
[1] Building level 6
[3] Building level 6
[2] Building level 6
[1] Building level 7
[3] Building level 7
[2] Building level 7
[1] Building level 8
[1] Building level 9
[3] Building level 8
[2] Building level 8
[1] Building level 10
[1] Building level 11
[3] Building level 9
[1] Building level 12
[1] Building level 13
[2] Building level 9
[1] Building level 14
[3] Building level 10
[2] Building level 10
[3] Building level 11
[2] Building level 11
[3] Building level 12
[2] Building level 12
[3] Building level 13
[2] Building level 13
[3] Building level 14
[2] Building level 14
GPU: 4 iters: 1.18989 s: 2.2 GB/s
PCGAMG:  Solving for pd, Initial residual = 0.00242123, Final residual = 0.000108503, No Iterations 4
[1] Building level 0
[3] Building level 0
[2] Building level 0
[0] Building level 0
[3] Building level 1
[0] Building level 1
[2] Building level 1
[1] Building level 1
[3] Building level 2
[0] Building level 2
[1] Building level 2
[2] Building level 2
[3] Building level 3
[1] Building level 3
[2] Building level 3
[0] Building level 3
[3] Building level 4
[1] Building level 4
[0] Building level 4
[2] Building level 4
[1] Building level 5
[3] Building level 5
[0] Building level 5
[2] Building level 5
[1] Building level 6
[3] Building level 6
[0] Building level 6
[2] Building level 6
[1] Building level 7
[3] Building level 7
[0] Building level 7
[1] Building level 8
[2] Building level 7
[3] Building level 8
[1] Building level 9
[1] Building level 10
[1] Building level 11
[0] Building level 8
[1] Building level 12
[3] Building level 9
[1] Building level 13
[1] Building level 14
[3] Building level 10
[2] Building level 8
[3] Building level 11
[3] Building level 12
[0] Building level 9
[3] Building level 13
[3] Building level 14
[0] Building level 10
[2] Building level 9
[0] Building level 11
[0] Building level 12
[0] Building level 13
[0] Building level 14
14 Level construction complete
[2] Building level 10
[2] Building level 11
[2] Building level 12
[2] Building level 13
[2] Building level 14
GPU: 5 iters: 1.39824 s: 2.34021 GB/s
PCGAMG:  Solving for pd, Initial residual = 0.00102999, Final residual = 4.05753e-05, No Iterations 5
[0] Building level 0
[2] Building level 0
[3] Building level 0
[1] Building level 0
[2] Building level 1
[1] Building level 1
[0] Building level 1
[3] Building level 1
[0] Building level 2
[1] Building level 2
[3] Building level 2
[2] Building level 2
[0] Building level 3
[3] Building level 3
[2] Building level 3
[1] Building level 3
[0] Building level 4
[3] Building level 4
[1] Building level 4
[2] Building level 4
[0] Building level 5
[1] Building level 5
[3] Building level 5
[2] Building level 5
[0] Building level 6
[1] Building level 6
[3] Building level 6
[2] Building level 6
[0] Building level 7
[1] Building level 7
[0] Building level 8
[3] Building level 7
[1] Building level 8
[0] Building level 9
[2] Building level 7
[0] Building level 10
[0] Building level 11
[1] Building level 9
[0] Building level 12
[0] Building level 13
[3] Building level 8
[0] Building level 14
14 Level construction complete
[1] Building level 10
[1] Building level 11
[1] Building level 12
[1] Building level 13
[1] Building level 14
[3] Building level 9
[2] Building level 8
[3] Building level 10
[3] Building level 11
[3] Building level 12
[3] Building level 13
[3] Building level 14
[2] Building level 9
[2] Building level 10
[2] Building level 11
[2] Building level 12
[2] Building level 13
[2] Building level 14
GPU: 15 iters: 3.82284 s: 2.56787 GB/s
PCGAMG:  Solving for pd, Initial residual = 0.000370015, Final residual = 7.92727e-08, No Iterations 15
time step continuity errors : sum local = 3.65463e-12, global = 5.94742e-24, cumulative = 1.10922e-23
ExecutionTime = 599.43 s  ClockTime = 618 s

Courant Number mean: 4.49083e-05 max: 0.00972003 velocity magnitude: 0.149331
Time = 0.01

MULES: Solving for alpha1
Liquid phase volume fraction = 0.00275421  Min(alpha1) = -2.68359e-29  Max(alpha1) = 1
MULES: Solving for alpha1
Liquid phase volume fraction = 0.00275421  Min(alpha1) = -6.76196e-29  Max(alpha1) = 1
[3] Building level 0
[2] Building level 0
[0] Building level 0
[1] Building level 0
[2] Building level 1
[3] Building level 1
[1] Building level 1
[0] Building level 1
Reconstruction on level 1
Creating AMGLevel 
[2] Building level 2
[0] Building level 2
Reconstruction on level 2
[1] Building level 2
[3] Building level 2
[3] Building level 3
Creating AMGLevel 
[0] Building level 3
Reconstruction on level 3
[2] Building level 3
[1] Building level 3
[3] Building level 4
Creating AMGLevel 
[0] Building level 4
Reconstruction on level 4
[1] Building level 4
[2] Building level 4
[3] Building level 5
Creating AMGLevel 
[0] Building level 5
Reconstruction on level 5
[1] Building level 5
[2] Building level 5
[3] Building level 6
Creating AMGLevel 
[1] Building level 6
[0] Building level 6
Reconstruction on level 6
[2] Building level 6
[3] Building level 7
Creating AMGLevel 
[1] Building level 7
[0] Building level 7
Reconstruction on level 7
[3] Building level 8
[2] Building level 7
[1] Building level 8
Creating AMGLevel 
[0] Building level 8
Reconstruction on level 8
[3] Building level 9
[1] Building level 9
Creating AMGLevel 
[0] Building level 9
Reconstruction on level 9
[3] Building level 10
[1] Building level 10
Creating AMGLevel 
[2] Building level 8
[0] Building level 10
Reconstruction on level 10
[1] Building level 11
[3] Building level 11
Creating AMGLevel 
[0] Building level 11
Reconstruction on level 11
[1] Building level 12
[3] Building level 12
[1] Building level 13
[3] Building level 13
Creating AMGLevel 
[0] Building level 12
Reconstruction on level 12
[1] Building level 14
[3] Building level 14
Creating AMGLevel 
[0] Building level 13
Reconstruction on level 13
Creating AMGLevel 
[0] Building level 14
Reconstruction on level 14
Creating AMGLevel 
14 Level construction complete
[2] Building level 9
[2] Building level 10
[2] Building level 11
[2] Building level 12
[2] Building level 13
[2] Building level 14
GPU: 4 iters: 1.11278 s: 2.35244 GB/s
PCGAMG:  Solving for pd, Initial residual = 0.00258712, Final residual = 0.00010462, No Iterations 4
[3] Building level 0
[1] Building level 0
[2] Building level 0
[0] Building level 0
[0] Building level 1
[3] Building level 1
[2] Building level 1
[1] Building level 1
[1] Building level 2
[3] Building level 2
[0] Building level 2
[2] Building level 2
[1] Building level 3
[3] Building level 3
[0] Building level 3
[2] Building level 3
[1] Building level 4
[0] Building level 4
[3] Building level 4
[2] Building level 4
[1] Building level 5
[3] Building level 5
[0] Building level 5
[2] Building level 5
[1] Building level 6
[1] Building level 7
[0] Building level 6
[3] Building level 6
[1] Building level 8
[2] Building level 6
[1] Building level 9
[1] Building level 10
[1] Building level 11
[1] Building level 12
[1] Building level 13
[1] Building level 14
[0] Building level 7
[3] Building level 7
[2] Building level 7
[0] Building level 8
[3] Building level 8
[2] Building level 8
[0] Building level 9
[0] Building level 10
[3] Building level 9
[0] Building level 11
[2] Building level 9
[0] Building level 12
[0] Building level 13
[3] Building level 10
[0] Building level 14
14 Level construction complete
[3] Building level 11
[2] Building level 10
[3] Building level 12
[3] Building level 13
[3] Building level 14
[2] Building level 11
[2] Building level 12
[2] Building level 13
[2] Building level 14
GPU: 5 iters: 1.35861 s: 2.40849 GB/s
PCGAMG:  Solving for pd, Initial residual = 0.00100635, Final residual = 4.13404e-05, No Iterations 5
[2] Building level 0
[3] Building level 0
[1] Building level 0
[0] Building level 0
[2] Building level 1
[1] Building level 1
[3] Building level 1
[0] Building level 1
[1] Building level 2
[3] Building level 2
[0] Building level 2
[2] Building level 2
[1] Building level 3
[0] Building level 3
[3] Building level 3
[2] Building level 3
[1] Building level 4
[0] Building level 4
[3] Building level 4
[2] Building level 4
[1] Building level 5
[0] Building level 5
[3] Building level 5
[2] Building level 5
[1] Building level 6
[0] Building level 6
[1] Building level 7
[3] Building level 6
[0] Building level 7
[1] Building level 8
[2] Building level 6
[1] Building level 9
[0] Building level 8
[1] Building level 10
[1] Building level 11
[1] Building level 12
[3] Building level 7
[1] Building level 13
[1] Building level 14
[0] Building level 9
[0] Building level 10
[0] Building level 11
[0] Building level 12
[0] Building level 13
[0] Building level 14
14 Level construction complete
[3] Building level 8
[2] Building level 7
[3] Building level 9
[3] Building level 10
[3] Building level 11
[3] Building level 12
[3] Building level 13
[3] Building level 14
[2] Building level 8
[2] Building level 9
[2] Building level 10
[2] Building level 11
[2] Building level 12
[2] Building level 13
[2] Building level 14
GPU: 14 iters: 3.29518 s: 2.78046 GB/s
PCGAMG:  Solving for pd, Initial residual = 0.000323363, Final residual = 7.44094e-08, No Iterations 14
time step continuity errors : sum local = 3.40897e-12, global = -2.74745e-24, cumulative = 8.34473e-24
ExecutionTime = 655.4 s  ClockTime = 675 s

End

Finalising parallel run
