 Data for JOB [42358,1] offset 0

 ========================   JOB MAP   ========================

 Data for node: ivb106	Num slots: 4	Max slots: 0	Num procs: 4
 	Process OMPI jobid: [42358,1] App: 0 Process rank: 0
 	Process OMPI jobid: [42358,1] App: 0 Process rank: 1
 	Process OMPI jobid: [42358,1] App: 0 Process rank: 2
 	Process OMPI jobid: [42358,1] App: 0 Process rank: 3

 =============================================================
[ivb106:12004] MCW rank 2 bound to socket 0[core 2[hwt 0]]: [././B/././././././.][./././././././././.]
[ivb106:12004] MCW rank 3 bound to socket 0[core 3[hwt 0]]: [./././B/./././././.][./././././././././.]
[ivb106:12004] MCW rank 0 bound to socket 0[core 0[hwt 0]]: [B/././././././././.][./././././././././.]
[ivb106:12004] MCW rank 1 bound to socket 0[core 1[hwt 0]]: [./B/./././././././.][./././././././././.]
/*---------------------------------------------------------------------------*\
| =========                 |                                                 |
| \\      /  F ield         | foam-extend: Open Source CFD                    |
|  \\    /   O peration     | Version:     3.1                                |
|   \\  /    A nd           | Web:         http://www.extend-project.de       |
|    \\/     M anipulation  |                                                 |
\*---------------------------------------------------------------------------*/
Build    : 3.1-e2da948002a2
Exec     : interFoam -parallel
Date     : May 21 2016
Time     : 20:57:55
Host     : ivb106
PID      : 12041
CtrlDict : /home-2/vplatonov/foam/foam-extend-3.1/etc/controlDict
Case     : /home/vplatonov/tests/rt12mln
nProcs   : 4
Slaves : 
3
(
ivb106.12037
ivb106.12045
ivb106.12036
)

Pstream initialized with:
    floatTransfer     : 0
    nProcsSimpleSum   : 0
    commsType         : blocking
SigFpe   : Enabling floating point exception trapping (FOAM_SIGFPE).

// * * * * * * * * * * * * * * * * * * * * * * * * * * * * * * * * * * * * * //
Create time

Create mesh for time = 0


Reading g
Reading field pd

Reading field alpha1

Reading field U

Reading/calculating face flux field phi

Reading transportProperties

Selecting incompressible transport model Newtonian
Selecting incompressible transport model Newtonian
Calculating field g.h

Selecting turbulence model type laminar
time step continuity errors : sum local = 0, global = 0, cumulative = 0
Created persistent data with name pcorr
[0] Building level 0
[1] Building level 0
[2] Building level 0
[3] Building level 0
Creating AMGLevel 
[1] Building level 1
[2] Building level 1
[0] Building level 1
[3] Building level 1
Creating AMGLevel 
[1] Building level 2
[2] Building level 2
[0] Building level 2
[3] Building level 2
[2] Building level 3
[1] Building level 3
Creating AMGLevel 
[0] Building level 3
[3] Building level 3
[2] Building level 4
[1] Building level 4
Creating AMGLevel 
[0] Building level 4
[3] Building level 4
[2] Building level 5
[1] Building level 5
Creating AMGLevel 
[0] Building level 5
[2] Building level 6
[1] Building level 6
[3] Building level 5
[2] Building level 7
[1] Building level 7
Creating AMGLevel 
[0] Building level 6
[2] Building level 8
[1] Building level 8
[2] Building level 9
[2] Building level 10
[1] Building level 9
[2] Building level 11
[2] Building level 12
[2] Building level 13
[2] Building level 14
[1] Building level 10
Creating AMGLevel 
[0] Building level 7
[3] Building level 6
[1] Building level 11
[1] Building level 12
[1] Building level 13
[1] Building level 14
Creating AMGLevel 
[0] Building level 8
Creating AMGLevel 
[0] Building level 9
Creating AMGLevel 
[0] Building level 10
[3] Building level 7
Creating AMGLevel 
[0] Building level 11
Creating AMGLevel 
[0] Building level 12
Creating AMGLevel 
[0] Building level 13
Creating AMGLevel 
[0] Building level 14
Creating AMGLevel 
14 Level construction complete
[3] Building level 8
[3] Building level 9
[3] Building level 10
[3] Building level 11
[3] Building level 12
[3] Building level 13
[3] Building level 14
PCGAMG:  Solving for pcorr, Initial residual = 0, Final residual = 0, No Iterations 0
time step continuity errors : sum local = 0, global = 0, cumulative = 0
Courant Number mean: 0 max: 0 velocity magnitude: 0

Starting time loop

Courant Number mean: 0 max: 0 velocity magnitude: 0
Time = 0.001

MULES: Solving for alpha1
Liquid phase volume fraction = 0.00275421  Min(alpha1) = 0  Max(alpha1) = 1
MULES: Solving for alpha1
Liquid phase volume fraction = 0.00275421  Min(alpha1) = 0  Max(alpha1) = 1
[1] Building level 0
Created persistent data with name pd
[0] Building level 0
[2] Building level 0
[3] Building level 0
Creating AMGLevel 
[1] Building level 1
[2] Building level 1
[0] Building level 1
[3] Building level 1
[2] Building level 2
[1] Building level 2
Creating AMGLevel 
[0] Building level 2
[3] Building level 2
[2] Building level 3
[1] Building level 3
Creating AMGLevel 
[0] Building level 3
[3] Building level 3
[2] Building level 4
[1] Building level 4
Creating AMGLevel 
[0] Building level 4
[3] Building level 4
[2] Building level 5
[1] Building level 5
Creating AMGLevel 
[0] Building level 5
[2] Building level 6
[1] Building level 6
[3] Building level 5
[2] Building level 7
Creating AMGLevel 
[0] Building level 6
[1] Building level 7
[2] Building level 8
[1] Building level 8
[2] Building level 9
Creating AMGLevel 
[0] Building level 7
[2] Building level 10
[2] Building level 11
[1] Building level 9
[2] Building level 12
[2] Building level 13
[2] Building level 14
[1] Building level 10
[3] Building level 6
[1] Building level 11
Creating AMGLevel 
[0] Building level 8
[1] Building level 12
[1] Building level 13
[1] Building level 14
Creating AMGLevel 
[0] Building level 9
Creating AMGLevel 
[0] Building level 10
Creating AMGLevel 
[0] Building level 11
Creating AMGLevel 
[0] Building level 12
Creating AMGLevel 
[0] Building level 13
Creating AMGLevel 
[0] Building level 14
Creating AMGLevel 
14 Level construction complete
[3] Building level 7
[3] Building level 8
[3] Building level 9
[3] Building level 10
[3] Building level 11
[3] Building level 12
[3] Building level 13
[3] Building level 14
GPU: 1 iters: 0.596349 s: 1.09741 GB/s
PCGAMG:  Solving for pd, Initial residual = 1, Final residual = 0.0347813, No Iterations 1
[3] Building level 0
[0] Building level 0
[2] Building level 0
[1] Building level 0
[3] Building level 1
[0] Building level 1
[2] Building level 1
[1] Building level 1
[3] Building level 2
[0] Building level 2
[2] Building level 2
[1] Building level 2
[3] Building level 3
[0] Building level 3
[2] Building level 3
[1] Building level 3
[0] Building level 4
[2] Building level 4
[3] Building level 4
[1] Building level 4
[0] Building level 5
[3] Building level 5
[2] Building level 5
[1] Building level 5
[0] Building level 6
[1] Building level 6
[3] Building level 6
[2] Building level 6
[0] Building level 7
[0] Building level 8
[1] Building level 7
[2] Building level 7
[3] Building level 7
[0] Building level 9
[0] Building level 10
[0] Building level 11
[0] Building level 12
[0] Building level 13
[0] Building level 14
14 Level construction complete
[1] Building level 8
[2] Building level 8
[3] Building level 8
[1] Building level 9
[2] Building level 9
[3] Building level 9
[1] Building level 10
[2] Building level 10
[1] Building level 11
[3] Building level 10
[2] Building level 11
[1] Building level 12
[1] Building level 13
[2] Building level 12
[1] Building level 14
[2] Building level 13
[3] Building level 11
[2] Building level 14
[3] Building level 12
[3] Building level 13
[3] Building level 14
GPU: 3 iters: 1.20106 s: 1.63466 GB/s
PCGAMG:  Solving for pd, Initial residual = 0.022278, Final residual = 0.000979453, No Iterations 3
[3] Building level 0
[2] Building level 0
[1] Building level 0
[0] Building level 0
[3] Building level 1
[2] Building level 1
[0] Building level 1
[1] Building level 1
[3] Building level 2
[2] Building level 2
[0] Building level 2
[1] Building level 2
[3] Building level 3
[2] Building level 3
[1] Building level 3
[0] Building level 3
[3] Building level 4
[1] Building level 4
[2] Building level 4
[0] Building level 4
[0] Building level 5
[3] Building level 5
[1] Building level 5
[2] Building level 5
[0] Building level 6
[3] Building level 6
[1] Building level 6
[2] Building level 6
[0] Building level 7
[3] Building level 7
[1] Building level 7
[2] Building level 7
[0] Building level 8
[3] Building level 8
[0] Building level 9
[1] Building level 8
[3] Building level 9
[0] Building level 10
[2] Building level 8
[0] Building level 11
[0] Building level 12
[3] Building level 10
[0] Building level 13
[0] Building level 14
[1] Building level 9
14 Level construction complete
[3] Building level 11
[3] Building level 12
[3] Building level 13
[1] Building level 10
[3] Building level 14
[2] Building level 9
[1] Building level 11
[1] Building level 12
[1] Building level 13
[2] Building level 10
[1] Building level 14
[2] Building level 11
[2] Building level 12
[2] Building level 13
[2] Building level 14
GPU: 17 iters: 5.34666 s: 2.08082 GB/s
PCGAMG:  Solving for pd, Initial residual = 0.00562838, Final residual = 8.95445e-08, No Iterations 17
time step continuity errors : sum local = 6.6566e-12, global = -4.80316e-25, cumulative = -4.80316e-25
ExecutionTime = 130.97 s  ClockTime = 141 s

Courant Number mean: 4.86855e-06 max: 0.00215808 velocity magnitude: 0.03372
Time = 0.002

MULES: Solving for alpha1
Liquid phase volume fraction = 0.00275421  Min(alpha1) = 0  Max(alpha1) = 1
MULES: Solving for alpha1
Liquid phase volume fraction = 0.00275421  Min(alpha1) = 0  Max(alpha1) = 1
[3] Building level 0
[2] Building level 0
[1] Building level 0
[0] Building level 0
[3] Building level 1
[0] Building level 1
Reconstruction on level 1
[2] Building level 1
[1] Building level 1
[2] Building level 2
Creating AMGLevel 
[0] Building level 2
Reconstruction on level 2
[1] Building level 2
[3] Building level 2
[2] Building level 3
[1] Building level 3
Creating AMGLevel 
[0] Building level 3
Reconstruction on level 3
[3] Building level 3
[1] Building level 4
Creating AMGLevel 
[2] Building level 4
[0] Building level 4
Reconstruction on level 4
[3] Building level 4
[1] Building level 5
Creating AMGLevel 
[2] Building level 5
[0] Building level 5
Reconstruction on level 5
[1] Building level 6
[1] Building level 7
[3] Building level 5
Creating AMGLevel 
[2] Building level 6
[0] Building level 6
Reconstruction on level 6
[1] Building level 8
[1] Building level 9
[1] Building level 10
[2] Building level 7
[1] Building level 11
Creating AMGLevel 
[0] Building level 7
Reconstruction on level 7
[1] Building level 12
[1] Building level 13
[1] Building level 14
[2] Building level 8
Creating AMGLevel 
[0] Building level 8
Reconstruction on level 8
[2] Building level 9
[3] Building level 6
Creating AMGLevel 
[0] Building level 9
Reconstruction on level 9
[2] Building level 10
[2] Building level 11
Creating AMGLevel 
[0] Building level 10
Reconstruction on level 10
[2] Building level 12
[2] Building level 13
[2] Building level 14
Creating AMGLevel 
[0] Building level 11
Reconstruction on level 11
Creating AMGLevel 
[0] Building level 12
Reconstruction on level 12
Creating AMGLevel 
[0] Building level 13
Reconstruction on level 13
Creating AMGLevel 
[0] Building level 14
Reconstruction on level 14
Creating AMGLevel 
14 Level construction complete
[3] Building level 7
[3] Building level 8
[3] Building level 9
[3] Building level 10
[3] Building level 11
[3] Building level 12
[3] Building level 13
[3] Building level 14
GPU: 3 iters: 1.17637 s: 1.66896 GB/s
PCGAMG:  Solving for pd, Initial residual = 0.00352131, Final residual = 0.00013595, No Iterations 3
[1] Building level 0
[3] Building level 0
[0] Building level 0
[2] Building level 0
[3] Building level 1
[0] Building level 1
[1] Building level 1
[2] Building level 1
[0] Building level 2
[3] Building level 2
[1] Building level 2
[2] Building level 2
[3] Building level 3
[0] Building level 3
[1] Building level 3
[2] Building level 3
[0] Building level 4
[1] Building level 4
[3] Building level 4
[2] Building level 4
[0] Building level 5
[1] Building level 5
[3] Building level 5
[0] Building level 6
[2] Building level 5
[1] Building level 6
[0] Building level 7
[3] Building level 6
[0] Building level 8
[1] Building level 7
[0] Building level 9
[0] Building level 10
[0] Building level 11
[0] Building level 12
[0] Building level 13
[0] Building level 14
14 Level construction complete
[1] Building level 8
[3] Building level 7
[1] Building level 9
[1] Building level 10
[2] Building level 6
[1] Building level 11
[1] Building level 12
[1] Building level 13
[1] Building level 14
[3] Building level 8
[3] Building level 9
[3] Building level 10
[3] Building level 11
[3] Building level 12
[3] Building level 13
[3] Building level 14
[2] Building level 7
[2] Building level 8
[2] Building level 9
[2] Building level 10
[2] Building level 11
[2] Building level 12
[2] Building level 13
[2] Building level 14
GPU: 3 iters: 1.17548 s: 1.67022 GB/s
PCGAMG:  Solving for pd, Initial residual = 0.00210822, Final residual = 9.2279e-05, No Iterations 3
[0] Building level 0
[1] Building level 0
[2] Building level 0
[3] Building level 0
[3] Building level 1
[0] Building level 1
[1] Building level 1
[2] Building level 1
[3] Building level 2
[0] Building level 2
[1] Building level 2
[2] Building level 2
[3] Building level 3
[0] Building level 3
[1] Building level 3
[2] Building level 3
[0] Building level 4
[1] Building level 4
[3] Building level 4
[2] Building level 4
[0] Building level 5
[1] Building level 5
[3] Building level 5
[0] Building level 6
[1] Building level 6
[2] Building level 5
[3] Building level 6
[0] Building level 7
[1] Building level 7
[0] Building level 8
[1] Building level 8
[0] Building level 9
[3] Building level 7
[1] Building level 9
[0] Building level 10
[0] Building level 11
[1] Building level 10
[0] Building level 12
[0] Building level 13
[0] Building level 14
14 Level construction complete
[1] Building level 11
[1] Building level 12
[1] Building level 13
[1] Building level 14
[3] Building level 8
[2] Building level 6
[3] Building level 9
[3] Building level 10
[3] Building level 11
[3] Building level 12
[3] Building level 13
[3] Building level 14
[2] Building level 7
[2] Building level 8
[2] Building level 9
[2] Building level 10
[2] Building level 11
[2] Building level 12
[2] Building level 13
[2] Building level 14
GPU: 29 iters: 8.80917 s: 2.15442 GB/s
PCGAMG:  Solving for pd, Initial residual = 0.00193188, Final residual = 9.59378e-08, No Iterations 29
time step continuity errors : sum local = 4.49726e-12, global = -7.85442e-25, cumulative = -1.26576e-24
ExecutionTime = 192.6 s  ClockTime = 203 s

Courant Number mean: 7.66801e-06 max: 0.00313191 velocity magnitude: 0.048936
Time = 0.003

MULES: Solving for alpha1
Liquid phase volume fraction = 0.00275421  Min(alpha1) = -1.37143e-30  Max(alpha1) = 1
MULES: Solving for alpha1
Liquid phase volume fraction = 0.00275421  Min(alpha1) = -1.34508e-31  Max(alpha1) = 1
[2] Building level 0
[1] Building level 0
[3] Building level 0
[0] Building level 0
[3] Building level 1
[1] Building level 1
[2] Building level 1
[0] Building level 1
Reconstruction on level 1
[1] Building level 2
[2] Building level 2
[1] Building level 3
[2] Building level 3
[1] Building level 4
Creating AMGLevel 
[0] Building level 2
Reconstruction on level 2
[3] Building level 2
[2] Building level 4
[1] Building level 5
[2] Building level 5
[1] Building level 6
Creating AMGLevel 
[0] Building level 3
Reconstruction on level 3
[1] Building level 7
[2] Building level 6
[3] Building level 3
[1] Building level 8
[1] Building level 9
[1] Building level 10
[2] Building level 7
[1] Building level 11
[1] Building level 12
[1] Building level 13
[1] Building level 14
[2] Building level 8
[2] Building level 9
[2] Building level 10
[2] Building level 11
[2] Building level 12
[2] Building level 13
[2] Building level 14
Creating AMGLevel 
[0] Building level 4
Reconstruction on level 4
[3] Building level 4
Creating AMGLevel 
[0] Building level 5
Reconstruction on level 5
[3] Building level 5
Creating AMGLevel 
[0] Building level 6
Reconstruction on level 6
Creating AMGLevel 
[0] Building level 7
Reconstruction on level 7
Creating AMGLevel 
[0] Building level 8
Reconstruction on level 8
[3] Building level 6
Creating AMGLevel 
[0] Building level 9
Reconstruction on level 9
Creating AMGLevel 
[0] Building level 10
Reconstruction on level 10
Creating AMGLevel 
[0] Building level 11
Reconstruction on level 11
Creating AMGLevel 
[0] Building level 12
Reconstruction on level 12
Creating AMGLevel 
[0] Building level 13
Reconstruction on level 13
Creating AMGLevel 
[0] Building level 14
Reconstruction on level 14
Creating AMGLevel 
14 Level construction complete
[3] Building level 7
[3] Building level 8
[3] Building level 9
[3] Building level 10
[3] Building level 11
[3] Building level 12
[3] Building level 13
[3] Building level 14
GPU: 4 iters: 1.36066 s: 1.92389 GB/s
PCGAMG:  Solving for pd, Initial residual = 0.0042569, Final residual = 0.000175496, No Iterations 4
[2] Building level 0
[0] Building level 0
[1] Building level 0
[3] Building level 0
[3] Building level 1
[0] Building level 1
[2] Building level 1
[1] Building level 1
[3] Building level 2
[1] Building level 2
[0] Building level 2
[2] Building level 2
[3] Building level 3
[1] Building level 3
[0] Building level 3
[2] Building level 3
[1] Building level 4
[3] Building level 4
[0] Building level 4
[2] Building level 4
[1] Building level 5
[3] Building level 5
[0] Building level 5
[1] Building level 6
[2] Building level 5
[3] Building level 6
[1] Building level 7
[0] Building level 6
[1] Building level 8
[1] Building level 9
[3] Building level 7
[1] Building level 10
[1] Building level 11
[1] Building level 12
[1] Building level 13
[1] Building level 14
[2] Building level 6
[0] Building level 7
[3] Building level 8
[3] Building level 9
[0] Building level 8
[3] Building level 10
[3] Building level 11
[3] Building level 12
[3] Building level 13
[3] Building level 14
[0] Building level 9
[2] Building level 7
[0] Building level 10
[0] Building level 11
[0] Building level 12
[0] Building level 13
[0] Building level 14
14 Level construction complete
[2] Building level 8
[2] Building level 9
[2] Building level 10
[2] Building level 11
[2] Building level 12
[2] Building level 13
[2] Building level 14
GPU: 4 iters: 1.35892 s: 1.92634 GB/s
PCGAMG:  Solving for pd, Initial residual = 0.00308302, Final residual = 9.61197e-05, No Iterations 4
[1] Building level 0
[3] Building level 0
[0] Building level 0
[2] Building level 0
[3] Building level 1
[0] Building level 1
[2] Building level 1
[1] Building level 1
[3] Building level 2
[1] Building level 2
[0] Building level 2
[2] Building level 2
[3] Building level 3
[1] Building level 3
[0] Building level 3
[2] Building level 3
[3] Building level 4
[1] Building level 4
[0] Building level 4
[2] Building level 4
[1] Building level 5
[3] Building level 5
[0] Building level 5
[1] Building level 6
[2] Building level 5
[3] Building level 6
[1] Building level 7
[0] Building level 6
[1] Building level 8
[1] Building level 9
[3] Building level 7
[1] Building level 10
[1] Building level 11
[1] Building level 12
[1] Building level 13
[1] Building level 14
[2] Building level 6
[0] Building level 7
[3] Building level 8
[3] Building level 9
[0] Building level 8
[3] Building level 10
[3] Building level 11
[3] Building level 12
[3] Building level 13
[3] Building level 14
[0] Building level 9
[0] Building level 10
[2] Building level 7
[0] Building level 11
[0] Building level 12
[0] Building level 13
[0] Building level 14
14 Level construction complete
[2] Building level 8
[2] Building level 9
[2] Building level 10
[2] Building level 11
[2] Building level 12
[2] Building level 13
[2] Building level 14
GPU: 50 iters: 13.8168 s: 2.36827 GB/s
PCGAMG:  Solving for pd, Initial residual = 0.00260676, Final residual = 8.71525e-07, No Iterations 50
time step continuity errors : sum local = 4.08982e-11, global = -1.7386e-24, cumulative = -3.00435e-24
ExecutionTime = 259.46 s  ClockTime = 271 s

Courant Number mean: 1.35657e-05 max: 0.004825 velocity magnitude: 0.0753907
Time = 0.004

MULES: Solving for alpha1
Liquid phase volume fraction = 0.00275421  Min(alpha1) = -2.3863e-31  Max(alpha1) = 1
MULES: Solving for alpha1
Liquid phase volume fraction = 0.00275421  Min(alpha1) = -2.48886e-31  Max(alpha1) = 1
[0] Building level 0
[3] Building level 0
[1] Building level 0
[2] Building level 0
[3] Building level 1
[0] Building level 1
Reconstruction on level 1
[2] Building level 1
[1] Building level 1
[1] Building level 2
[2] Building level 2
[1] Building level 3
[2] Building level 3
Creating AMGLevel 
[0] Building level 2
Reconstruction on level 2
[3] Building level 2
[1] Building level 4
[2] Building level 4
[1] Building level 5
[2] Building level 5
[1] Building level 6
Creating AMGLevel 
[0] Building level 3
Reconstruction on level 3
[2] Building level 6
[3] Building level 3
[1] Building level 7
[1] Building level 8
[2] Building level 7
[1] Building level 9
[1] Building level 10
[1] Building level 11
[1] Building level 12
[1] Building level 13
[2] Building level 8
[1] Building level 14
[2] Building level 9
[2] Building level 10
[2] Building level 11
[2] Building level 12
[2] Building level 13
[2] Building level 14
Creating AMGLevel 
[0] Building level 4
Reconstruction on level 4
[3] Building level 4
Creating AMGLevel 
[0] Building level 5
Reconstruction on level 5
[3] Building level 5
Creating AMGLevel 
[0] Building level 6
Reconstruction on level 6
Creating AMGLevel 
[0] Building level 7
Reconstruction on level 7
Creating AMGLevel 
[0] Building level 8
Reconstruction on level 8
[3] Building level 6
Creating AMGLevel 
[0] Building level 9
Reconstruction on level 9
Creating AMGLevel 
[0] Building level 10
Reconstruction on level 10
Creating AMGLevel 
[0] Building level 11
Reconstruction on level 11
Creating AMGLevel 
[0] Building level 12
Reconstruction on level 12
Creating AMGLevel 
[0] Building level 13
Reconstruction on level 13
Creating AMGLevel 
[0] Building level 14
Reconstruction on level 14
Creating AMGLevel 
14 Level construction complete
[3] Building level 7
[3] Building level 8
[3] Building level 9
[3] Building level 10
[3] Building level 11
[3] Building level 12
[3] Building level 13
[3] Building level 14
GPU: 4 iters: 1.43837 s: 1.81994 GB/s
PCGAMG:  Solving for pd, Initial residual = 0.00343632, Final residual = 0.000102883, No Iterations 4
[3] Building level 0
[2] Building level 0
[1] Building level 0
[0] Building level 0
[3] Building level 1
[0] Building level 1
[1] Building level 1
[2] Building level 1
[1] Building level 2
[3] Building level 2
[0] Building level 2
[2] Building level 2
[1] Building level 3
[3] Building level 3
[2] Building level 3
[0] Building level 3
[1] Building level 4
[3] Building level 4
[0] Building level 4
[2] Building level 4
[1] Building level 5
[3] Building level 5
[0] Building level 5
[1] Building level 6
[2] Building level 5
[1] Building level 7
[3] Building level 6
[1] Building level 8
[1] Building level 9
[0] Building level 6
[1] Building level 10
[1] Building level 11
[1] Building level 12
[2] Building level 6
[1] Building level 13
[1] Building level 14
[3] Building level 7
[0] Building level 7
[3] Building level 8
[2] Building level 7
[3] Building level 9
[0] Building level 8
[3] Building level 10
[3] Building level 11
[3] Building level 12
[3] Building level 13
[3] Building level 14
[0] Building level 9
[2] Building level 8
[0] Building level 10
[0] Building level 11
[0] Building level 12
[0] Building level 13
[0] Building level 14
14 Level construction complete
[2] Building level 9
[2] Building level 10
[2] Building level 11
[2] Building level 12
[2] Building level 13
[2] Building level 14
GPU: 4 iters: 1.43812 s: 1.82026 GB/s
PCGAMG:  Solving for pd, Initial residual = 0.00316958, Final residual = 0.000153493, No Iterations 4
[3] Building level 0
[2] Building level 0
[1] Building level 0
[0] Building level 0
[3] Building level 1
[0] Building level 1
[1] Building level 1
[2] Building level 1
[1] Building level 2
[3] Building level 2
[0] Building level 2
[2] Building level 2
[1] Building level 3
[3] Building level 3
[2] Building level 3
[0] Building level 3
[1] Building level 4
[3] Building level 4
[0] Building level 4
[2] Building level 4
[1] Building level 5
[3] Building level 5
[0] Building level 5
[1] Building level 6
[2] Building level 5
[1] Building level 7
[3] Building level 6
[1] Building level 8
[0] Building level 6
[1] Building level 9
[1] Building level 10
[1] Building level 11
[1] Building level 12
[1] Building level 13
[1] Building level 14
[2] Building level 6
[3] Building level 7
[0] Building level 7
[2] Building level 7
[3] Building level 8
[0] Building level 8
[3] Building level 9
[0] Building level 9
[3] Building level 10
[3] Building level 11
[3] Building level 12
[0] Building level 10
[2] Building level 8
[3] Building level 13
[3] Building level 14
[0] Building level 11
[0] Building level 12
[0] Building level 13
[0] Building level 14
14 Level construction complete
[2] Building level 9
[2] Building level 10
[2] Building level 11
[2] Building level 12
[2] Building level 13
[2] Building level 14
GPU: 34 iters: 10.0445 s: 2.21522 GB/s
PCGAMG:  Solving for pd, Initial residual = 0.00245048, Final residual = 9.30363e-08, No Iterations 34
time step continuity errors : sum local = 4.34823e-12, global = -1.71935e-24, cumulative = -4.7237e-24
ExecutionTime = 322.51 s  ClockTime = 335 s

Courant Number mean: 1.9242e-05 max: 0.0059757 velocity magnitude: 0.0933704
Time = 0.005

MULES: Solving for alpha1
Liquid phase volume fraction = 0.00275421  Min(alpha1) = -4.57934e-31  Max(alpha1) = 1
MULES: Solving for alpha1
Liquid phase volume fraction = 0.00275421  Min(alpha1) = -1.35171e-30  Max(alpha1) = 1
[3] Building level 0
[1] Building level 0
[2] Building level 0
[0] Building level 0
[3] Building level 1
[0] Building level 1
[1] Building level 1
[2] Building level 1
[1] Building level 2
[0] Building level 2
Reconstruction on level 2
[2] Building level 2
[1] Building level 3
[2] Building level 3
Creating AMGLevel 
[0] Building level 3
Reconstruction on level 3
[1] Building level 4
Creating AMGLevel 
[3] Building level 2
[0] Building level 4
Reconstruction on level 4
[2] Building level 4
[1] Building level 5
[2] Building level 5
Creating AMGLevel 
[0] Building level 5
Reconstruction on level 5
[1] Building level 6
[2] Building level 6
Creating AMGLevel 
[0] Building level 6
Reconstruction on level 6
[1] Building level 7
[3] Building level 3
[1] Building level 8
[2] Building level 7
Creating AMGLevel 
[0] Building level 7
Reconstruction on level 7
[1] Building level 9
[1] Building level 10
[2] Building level 8
[1] Building level 11
[1] Building level 12
[1] Building level 13
[1] Building level 14
[2] Building level 9
Creating AMGLevel 
[0] Building level 8
Reconstruction on level 8
[2] Building level 10
[2] Building level 11
[2] Building level 12
Creating AMGLevel 
[0] Building level 9
Reconstruction on level 9
[2] Building level 13
[2] Building level 14
Creating AMGLevel 
[0] Building level 10
Reconstruction on level 10
Creating AMGLevel 
[0] Building level 11
Reconstruction on level 11
Creating AMGLevel 
[0] Building level 12
Reconstruction on level 12
Creating AMGLevel 
[0] Building level 13
Reconstruction on level 13
Creating AMGLevel 
[0] Building level 14
Reconstruction on level 14
Creating AMGLevel 
14 Level construction complete
[3] Building level 4
[3] Building level 5
[3] Building level 6
[3] Building level 7
[3] Building level 8
[3] Building level 9
[3] Building level 10
[3] Building level 11
[3] Building level 12
[3] Building level 13
[3] Building level 14
GPU: 5 iters: 1.75499 s: 1.8645 GB/s
PCGAMG:  Solving for pd, Initial residual = 0.00216978, Final residual = 0.000101876, No Iterations 5
[2] Building level 0
[0] Building level 0
[1] Building level 0
[3] Building level 0
[3] Building level 1
[0] Building level 1
[1] Building level 1
[2] Building level 1
[1] Building level 2
[3] Building level 2
[0] Building level 2
[2] Building level 2
[3] Building level 3
[1] Building level 3
[0] Building level 3
[2] Building level 3
[1] Building level 4
[0] Building level 4
[3] Building level 4
[2] Building level 4
[1] Building level 5
[0] Building level 5
[3] Building level 5
[2] Building level 5
[1] Building level 6
[0] Building level 6
[3] Building level 6
[1] Building level 7
[0] Building level 7
[2] Building level 6
[1] Building level 8
[3] Building level 7
[1] Building level 9
[0] Building level 8
[1] Building level 10
[1] Building level 11
[1] Building level 12
[0] Building level 9
[1] Building level 13
[1] Building level 14
[3] Building level 8
[0] Building level 10
[0] Building level 11
[0] Building level 12
[0] Building level 13
[0] Building level 14
14 Level construction complete
[3] Building level 9
[2] Building level 7
[3] Building level 10
[3] Building level 11
[3] Building level 12
[3] Building level 13
[3] Building level 14
[2] Building level 8
[2] Building level 9
[2] Building level 10
[2] Building level 11
[2] Building level 12
[2] Building level 13
[2] Building level 14
GPU: 6 iters: 2.0436 s: 1.92143 GB/s
PCGAMG:  Solving for pd, Initial residual = 0.001804, Final residual = 6.47663e-05, No Iterations 6
[0] Building level 0
[2] Building level 0
[3] Building level 0
[1] Building level 0
[3] Building level 1
[0] Building level 1
[1] Building level 1
[2] Building level 1
[1] Building level 2
[3] Building level 2
[0] Building level 2
[2] Building level 2
[3] Building level 3
[1] Building level 3
[0] Building level 3
[2] Building level 3
[1] Building level 4
[3] Building level 4
[0] Building level 4
[2] Building level 4
[1] Building level 5
[0] Building level 5
[3] Building level 5
[2] Building level 5
[1] Building level 6
[0] Building level 6
[3] Building level 6
[1] Building level 7
[0] Building level 7
[2] Building level 6
[1] Building level 8
[3] Building level 7
[1] Building level 9
[0] Building level 8
[1] Building level 10
[1] Building level 11
[1] Building level 12
[1] Building level 13
[0] Building level 9
[1] Building level 14
[3] Building level 8
[0] Building level 10
[0] Building level 11
[0] Building level 12
[0] Building level 13
[0] Building level 14
14 Level construction complete
[3] Building level 9
[2] Building level 7
[3] Building level 10
[3] Building level 11
[3] Building level 12
[3] Building level 13
[3] Building level 14
[2] Building level 8
[2] Building level 9
[2] Building level 10
[2] Building level 11
[2] Building level 12
[2] Building level 13
[2] Building level 14
GPU: 47 iters: 13.946 s: 2.20554 GB/s
PCGAMG:  Solving for pd, Initial residual = 0.00143605, Final residual = 8.89158e-08, No Iterations 47
time step continuity errors : sum local = 4.14265e-12, global = -3.85539e-24, cumulative = -8.57909e-24
ExecutionTime = 388.75 s  ClockTime = 401 s

Courant Number mean: 2.4382e-05 max: 0.0068353 velocity magnitude: 0.106801
Time = 0.006

MULES: Solving for alpha1
Liquid phase volume fraction = 0.00275421  Min(alpha1) = -1.06339e-30  Max(alpha1) = 1
MULES: Solving for alpha1
Liquid phase volume fraction = 0.00275421  Min(alpha1) = -2.10034e-30  Max(alpha1) = 1
[3] Building level 0
[2] Building level 0
[1] Building level 0
[0] Building level 0
[3] Building level 1
[0] Building level 1
[1] Building level 1
[2] Building level 1
[1] Building level 2
[0] Building level 2
Reconstruction on level 2
Creating AMGLevel 
[1] Building level 3
[0] Building level 3
Reconstruction on level 3
[2] Building level 2
[3] Building level 2
Creating AMGLevel 
[0] Building level 4
Reconstruction on level 4
[1] Building level 4
[1] Building level 5
Creating AMGLevel 
[0] Building level 5
Reconstruction on level 5
[2] Building level 3
[1] Building level 6
Creating AMGLevel 
[0] Building level 6
Reconstruction on level 6
[3] Building level 3
[1] Building level 7
Creating AMGLevel 
[0] Building level 7
Reconstruction on level 7
[1] Building level 8
[1] Building level 9
[1] Building level 10
Creating AMGLevel 
[0] Building level 8
Reconstruction on level 8
[1] Building level 11
[1] Building level 12
[1] Building level 13
[1] Building level 14
Creating AMGLevel 
[0] Building level 9
Reconstruction on level 9
Creating AMGLevel 
[0] Building level 10
Reconstruction on level 10
Creating AMGLevel 
[0] Building level 11
Reconstruction on level 11
Creating AMGLevel 
[0] Building level 12
Reconstruction on level 12
Creating AMGLevel 
[0] Building level 13
Reconstruction on level 13
Creating AMGLevel 
[0] Building level 14
Reconstruction on level 14
Creating AMGLevel 
14 Level construction complete
[2] Building level 4
[3] Building level 4
[2] Building level 5
[3] Building level 5
[2] Building level 6
[3] Building level 6
[2] Building level 7
[2] Building level 8
[2] Building level 9
[3] Building level 7
[2] Building level 10
[2] Building level 11
[2] Building level 12
[2] Building level 13
[2] Building level 14
[3] Building level 8
[3] Building level 9
[3] Building level 10
[3] Building level 11
[3] Building level 12
[3] Building level 13
[3] Building level 14
GPU: 4 iters: 1.48272 s: 1.76551 GB/s
PCGAMG:  Solving for pd, Initial residual = 0.00227855, Final residual = 0.000105701, No Iterations 4
[0] Building level 0
[3] Building level 0
[2] Building level 0
[1] Building level 0
[3] Building level 1
[0] Building level 1
[1] Building level 1
[2] Building level 1
[3] Building level 2
[1] Building level 2
[2] Building level 2
[0] Building level 2
[3] Building level 3
[1] Building level 3
[2] Building level 3
[0] Building level 3
[1] Building level 4
[3] Building level 4
[0] Building level 4
[2] Building level 4
[1] Building level 5
[3] Building level 5
[0] Building level 5
[2] Building level 5
[1] Building level 6
[0] Building level 6
[3] Building level 6
[2] Building level 6
[1] Building level 7
[3] Building level 7
[0] Building level 7
[1] Building level 8
[2] Building level 7
[1] Building level 9
[1] Building level 10
[0] Building level 8
[3] Building level 8
[1] Building level 11
[1] Building level 12
[1] Building level 13
[1] Building level 14
[0] Building level 9
[3] Building level 9
[2] Building level 8
[0] Building level 10
[3] Building level 10
[0] Building level 11
[3] Building level 11
[0] Building level 12
[3] Building level 12
[0] Building level 13
[0] Building level 14
14 Level construction complete
[3] Building level 13
[2] Building level 9
[3] Building level 14
[2] Building level 10
[2] Building level 11
[2] Building level 12
[2] Building level 13
[2] Building level 14
GPU: 6 iters: 2.08691 s: 1.88155 GB/s
PCGAMG:  Solving for pd, Initial residual = 0.00118891, Final residual = 4.18387e-05, No Iterations 6
[0] Building level 0
[2] Building level 0
[3] Building level 0
[1] Building level 0
[3] Building level 1
[0] Building level 1
[2] Building level 1
[1] Building level 1
[1] Building level 2
[3] Building level 2
[0] Building level 2
[2] Building level 2
[1] Building level 3
[0] Building level 3
[3] Building level 3
[2] Building level 3
[0] Building level 4
[1] Building level 4
[3] Building level 4
[2] Building level 4
[0] Building level 5
[1] Building level 5
[2] Building level 5
[3] Building level 5
[0] Building level 6
[1] Building level 6
[0] Building level 7
[1] Building level 7
[0] Building level 8
[1] Building level 8
[0] Building level 9
[2] Building level 6
[0] Building level 10
[3] Building level 6
[1] Building level 9
[0] Building level 11
[0] Building level 12
[1] Building level 10
[0] Building level 13
[0] Building level 14
14 Level construction complete
[1] Building level 11
[1] Building level 12
[1] Building level 13
[1] Building level 14
[2] Building level 7
[3] Building level 7
[2] Building level 8
[3] Building level 8
[2] Building level 9
[3] Building level 9
[2] Building level 10
[2] Building level 11
[2] Building level 12
[2] Building level 13
[3] Building level 10
[2] Building level 14
[3] Building level 11
[3] Building level 12
[3] Building level 13
[3] Building level 14
GPU: 33 iters: 10.0995 s: 2.13837 GB/s
PCGAMG:  Solving for pd, Initial residual = 0.000706532, Final residual = 9.67425e-08, No Iterations 33
time step continuity errors : sum local = 4.49702e-12, global = -2.12379e-24, cumulative = -1.07029e-23
ExecutionTime = 453.27 s  ClockTime = 467 s

Courant Number mean: 2.94977e-05 max: 0.00763854 velocity magnitude: 0.119352
Time = 0.007

MULES: Solving for alpha1
Liquid phase volume fraction = 0.00275421  Min(alpha1) = -3.70962e-30  Max(alpha1) = 1
MULES: Solving for alpha1
Liquid phase volume fraction = 0.00275421  Min(alpha1) = -3.0525e-30  Max(alpha1) = 1
[1] Building level 0
[2] Building level 0
[0] Building level 0
[3] Building level 0
[3] Building level 1
[0] Building level 1
[1] Building level 1
[2] Building level 1
[1] Building level 2
[0] Building level 2
Reconstruction on level 2
[2] Building level 2
[1] Building level 3
Creating AMGLevel 
[0] Building level 3
Reconstruction on level 3
[2] Building level 3
Creating AMGLevel 
[3] Building level 2
[0] Building level 4
Reconstruction on level 4
[1] Building level 4
[2] Building level 4
[1] Building level 5
[2] Building level 5
Creating AMGLevel 
[0] Building level 5
Reconstruction on level 5
[1] Building level 6
[2] Building level 6
Creating AMGLevel 
[3] Building level 3
[0] Building level 6
Reconstruction on level 6
[1] Building level 7
[2] Building level 7
Creating AMGLevel 
[0] Building level 7
Reconstruction on level 7
[1] Building level 8
[2] Building level 8
[1] Building level 9
[2] Building level 9
[1] Building level 10
Creating AMGLevel 
[0] Building level 8
Reconstruction on level 8
[2] Building level 10
[1] Building level 11
[1] Building level 12
[2] Building level 11
[1] Building level 13
[2] Building level 12
[1] Building level 14
[2] Building level 13
[2] Building level 14
Creating AMGLevel 
[0] Building level 9
Reconstruction on level 9
Creating AMGLevel 
[0] Building level 10
Reconstruction on level 10
Creating AMGLevel 
[0] Building level 11
Reconstruction on level 11
Creating AMGLevel 
[0] Building level 12
Reconstruction on level 12
Creating AMGLevel 
[0] Building level 13
Reconstruction on level 13
Creating AMGLevel 
[0] Building level 14
Reconstruction on level 14
Creating AMGLevel 
14 Level construction complete
[3] Building level 4
[3] Building level 5
[3] Building level 6
[3] Building level 7
[3] Building level 8
[3] Building level 9
[3] Building level 10
[3] Building level 11
[3] Building level 12
[3] Building level 13
[3] Building level 14
GPU: 5 iters: 1.73262 s: 1.88858 GB/s
PCGAMG:  Solving for pd, Initial residual = 0.00232084, Final residual = 9.69684e-05, No Iterations 5
[0] Building level 0
[3] Building level 0
[2] Building level 0
[1] Building level 0
[3] Building level 1
[0] Building level 1
[1] Building level 1
[2] Building level 1
[3] Building level 2
[1] Building level 2
[0] Building level 2
[2] Building level 2
[1] Building level 3
[3] Building level 3
[0] Building level 3
[2] Building level 3
[1] Building level 4
[0] Building level 4
[3] Building level 4
[2] Building level 4
[1] Building level 5
[0] Building level 5
[3] Building level 5
[2] Building level 5
[1] Building level 6
[0] Building level 6
[1] Building level 7
[1] Building level 8
[2] Building level 6
[3] Building level 6
[1] Building level 9
[0] Building level 7
[1] Building level 10
[1] Building level 11
[1] Building level 12
[1] Building level 13
[1] Building level 14
[0] Building level 8
[3] Building level 7
[2] Building level 7
[0] Building level 9
[0] Building level 10
[0] Building level 11
[0] Building level 12
[0] Building level 13
[0] Building level 14
14 Level construction complete
[2] Building level 8
[3] Building level 8
[3] Building level 9
[2] Building level 9
[3] Building level 10
[2] Building level 10
[3] Building level 11
[2] Building level 11
[3] Building level 12
[2] Building level 12
[3] Building level 13
[3] Building level 14
[2] Building level 13
[2] Building level 14
GPU: 7 iters: 2.30506 s: 1.9874 GB/s
PCGAMG:  Solving for pd, Initial residual = 0.00109271, Final residual = 4.65239e-05, No Iterations 7
[3] Building level 0
[1] Building level 0
[0] Building level 0
[2] Building level 0
[3] Building level 1
[0] Building level 1
[2] Building level 1
[1] Building level 1
[1] Building level 2
[3] Building level 2
[0] Building level 2
[2] Building level 2
[1] Building level 3
[3] Building level 3
[0] Building level 3
[2] Building level 3
[1] Building level 4
[0] Building level 4
[3] Building level 4
[2] Building level 4
[1] Building level 5
[0] Building level 5
[3] Building level 5
[2] Building level 5
[1] Building level 6
[0] Building level 6
[1] Building level 7
[3] Building level 6
[1] Building level 8
[0] Building level 7
[1] Building level 9
[2] Building level 6
[1] Building level 10
[1] Building level 11
[1] Building level 12
[1] Building level 13
[1] Building level 14
[0] Building level 8
[3] Building level 7
[0] Building level 9
[0] Building level 10
[0] Building level 11
[0] Building level 12
[0] Building level 13
[0] Building level 14
14 Level construction complete
[3] Building level 8
[2] Building level 7
[3] Building level 9
[3] Building level 10
[3] Building level 11
[3] Building level 12
[3] Building level 13
[3] Building level 14
[2] Building level 8
[2] Building level 9
[2] Building level 10
[2] Building level 11
[2] Building level 12
[2] Building level 13
[2] Building level 14
GPU: 19 iters: 5.74661 s: 2.16376 GB/s
PCGAMG:  Solving for pd, Initial residual = 0.000541468, Final residual = 9.74484e-08, No Iterations 19
time step continuity errors : sum local = 4.51919e-12, global = 7.53924e-24, cumulative = -3.16363e-24
ExecutionTime = 513.54 s  ClockTime = 528 s

Courant Number mean: 3.46186e-05 max: 0.00834619 velocity magnitude: 0.130409
Time = 0.008

MULES: Solving for alpha1
Liquid phase volume fraction = 0.00275421  Min(alpha1) = -7.3652e-30  Max(alpha1) = 1
MULES: Solving for alpha1
Liquid phase volume fraction = 0.00275421  Min(alpha1) = -1.11604e-29  Max(alpha1) = 1
[0] Building level 0
[2] Building level 0
[3] Building level 0
[1] Building level 0
[3] Building level 1
[0] Building level 1
[1] Building level 1
[2] Building level 1
[1] Building level 2
[0] Building level 2
Reconstruction on level 2
[2] Building level 2
[1] Building level 3
Creating AMGLevel 
[2] Building level 3
[0] Building level 3
Reconstruction on level 3
[1] Building level 4
[3] Building level 2
[2] Building level 4
Creating AMGLevel 
[0] Building level 4
Reconstruction on level 4
[1] Building level 5
[2] Building level 5
Creating AMGLevel 
[0] Building level 5
Reconstruction on level 5
[1] Building level 6
[2] Building level 6
Creating AMGLevel 
[0] Building level 6
Reconstruction on level 6
[3] Building level 3
[1] Building level 7
[2] Building level 7
[1] Building level 8
[1] Building level 9
[2] Building level 8
Creating AMGLevel 
[0] Building level 7
Reconstruction on level 7
[1] Building level 10
[1] Building level 11
[2] Building level 9
[1] Building level 12
[1] Building level 13
[1] Building level 14
[2] Building level 10
[2] Building level 11
[2] Building level 12
[2] Building level 13
[2] Building level 14
Creating AMGLevel 
[0] Building level 8
Reconstruction on level 8
Creating AMGLevel 
[0] Building level 9
Reconstruction on level 9
Creating AMGLevel 
[0] Building level 10
Reconstruction on level 10
Creating AMGLevel 
[0] Building level 11
Reconstruction on level 11
Creating AMGLevel 
[0] Building level 12
Reconstruction on level 12
Creating AMGLevel 
[0] Building level 13
Reconstruction on level 13
Creating AMGLevel 
[0] Building level 14
Reconstruction on level 14
Creating AMGLevel 
14 Level construction complete
[3] Building level 4
[3] Building level 5
[3] Building level 6
[3] Building level 7
[3] Building level 8
[3] Building level 9
[3] Building level 10
[3] Building level 11
[3] Building level 12
[3] Building level 13
[3] Building level 14
GPU: 5 iters: 1.67166 s: 1.95745 GB/s
PCGAMG:  Solving for pd, Initial residual = 0.00236293, Final residual = 7.55349e-05, No Iterations 5
[0] Building level 0
[3] Building level 0
[2] Building level 0
[1] Building level 0
[3] Building level 1
[0] Building level 1
[2] Building level 1
[1] Building level 1
[3] Building level 2
[1] Building level 2
[2] Building level 2
[0] Building level 2
[3] Building level 3
[1] Building level 3
[2] Building level 3
[0] Building level 3
[3] Building level 4
[1] Building level 4
[0] Building level 4
[2] Building level 4
[3] Building level 5
[1] Building level 5
[0] Building level 5
[2] Building level 5
[3] Building level 6
[1] Building level 6
[0] Building level 6
[3] Building level 7
[2] Building level 6
[1] Building level 7
[3] Building level 8
[1] Building level 8
[3] Building level 9
[0] Building level 7
[1] Building level 9
[3] Building level 10
[1] Building level 10
[3] Building level 11
[1] Building level 11
[3] Building level 12
[3] Building level 13
[1] Building level 12
[3] Building level 14
[2] Building level 7
[1] Building level 13
[1] Building level 14
[0] Building level 8
[0] Building level 9
[2] Building level 8
[0] Building level 10
[0] Building level 11
[0] Building level 12
[0] Building level 13
[0] Building level 14
14 Level construction complete
[2] Building level 9
[2] Building level 10
[2] Building level 11
[2] Building level 12
[2] Building level 13
[2] Building level 14
GPU: 7 iters: 2.22232 s: 2.06139 GB/s
PCGAMG:  Solving for pd, Initial residual = 0.0010402, Final residual = 3.71366e-05, No Iterations 7
[3] Building level 0
[0] Building level 0
[2] Building level 0
[1] Building level 0
[3] Building level 1
[2] Building level 1
[1] Building level 1
[0] Building level 1
[3] Building level 2
[1] Building level 2
[2] Building level 2
[0] Building level 2
[3] Building level 3
[1] Building level 3
[0] Building level 3
[2] Building level 3
[3] Building level 4
[1] Building level 4
[0] Building level 4
[2] Building level 4
[3] Building level 5
[1] Building level 5
[0] Building level 5
[2] Building level 5
[3] Building level 6
[1] Building level 6
[3] Building level 7
[1] Building level 7
[0] Building level 6
[2] Building level 6
[3] Building level 8
[1] Building level 8
[3] Building level 9
[1] Building level 9
[3] Building level 10
[3] Building level 11
[1] Building level 10
[3] Building level 12
[3] Building level 13
[3] Building level 14
[1] Building level 11
[1] Building level 12
[1] Building level 13
[1] Building level 14
[0] Building level 7
[2] Building level 7
[0] Building level 8
[2] Building level 8
[0] Building level 9
[0] Building level 10
[0] Building level 11
[0] Building level 12
[2] Building level 9
[0] Building level 13
[0] Building level 14
14 Level construction complete
[2] Building level 10
[2] Building level 11
[2] Building level 12
[2] Building level 13
[2] Building level 14
GPU: 24 iters: 6.9574 s: 2.25752 GB/s
PCGAMG:  Solving for pd, Initial residual = 0.000441432, Final residual = 9.25393e-08, No Iterations 24
time step continuity errors : sum local = 4.28818e-12, global = -6.96578e-24, cumulative = -1.01294e-23
ExecutionTime = 575.35 s  ClockTime = 590 s

Courant Number mean: 3.97536e-05 max: 0.00903928 velocity magnitude: 0.140324
Time = 0.009

MULES: Solving for alpha1
Liquid phase volume fraction = 0.00275421  Min(alpha1) = -1.49252e-29  Max(alpha1) = 1
MULES: Solving for alpha1
Liquid phase volume fraction = 0.00275421  Min(alpha1) = -2.81959e-29  Max(alpha1) = 1
[1] Building level 0
[2] Building level 0
[0] Building level 0
[3] Building level 0
[3] Building level 1
[0] Building level 1
Reconstruction on level 1
[2] Building level 1
[1] Building level 1
Creating AMGLevel 
[0] Building level 2
Reconstruction on level 2
[2] Building level 2
[1] Building level 2
[3] Building level 2
Creating AMGLevel 
[1] Building level 3
[0] Building level 3
Reconstruction on level 3
[2] Building level 3
[3] Building level 3
[1] Building level 4
Creating AMGLevel 
[0] Building level 4
Reconstruction on level 4
[2] Building level 4
[3] Building level 4
[1] Building level 5
Creating AMGLevel 
[0] Building level 5
Reconstruction on level 5
[2] Building level 5
[1] Building level 6
[3] Building level 5
Creating AMGLevel 
[0] Building level 6
Reconstruction on level 6
[2] Building level 6
[1] Building level 7
[2] Building level 7
Creating AMGLevel 
[0] Building level 7
Reconstruction on level 7
[1] Building level 8
[1] Building level 9
[3] Building level 6
[2] Building level 8
Creating AMGLevel 
[0] Building level 8
Reconstruction on level 8
[1] Building level 10
[1] Building level 11
[1] Building level 12
[1] Building level 13
[2] Building level 9
[1] Building level 14
Creating AMGLevel 
[0] Building level 9
Reconstruction on level 9
[2] Building level 10
Creating AMGLevel 
[0] Building level 10
Reconstruction on level 10
[2] Building level 11
[2] Building level 12
Creating AMGLevel 
[0] Building level 11
Reconstruction on level 11
[2] Building level 13
Creating AMGLevel 
[0] Building level 12
Reconstruction on level 12
[2] Building level 14
Creating AMGLevel 
[0] Building level 13
Reconstruction on level 13
Creating AMGLevel 
[0] Building level 14
Reconstruction on level 14
Creating AMGLevel 
14 Level construction complete
[3] Building level 7
[3] Building level 8
[3] Building level 9
[3] Building level 10
[3] Building level 11
[3] Building level 12
[3] Building level 13
[3] Building level 14
GPU: 4 iters: 1.46029 s: 1.79262 GB/s
PCGAMG:  Solving for pd, Initial residual = 0.00242109, Final residual = 0.000106326, No Iterations 4
[0] Building level 0
[1] Building level 0
[2] Building level 0
[3] Building level 0
[3] Building level 1
[1] Building level 1
[2] Building level 1
[0] Building level 1
[0] Building level 2
[3] Building level 2
[1] Building level 2
[2] Building level 2
[3] Building level 3
[0] Building level 3
[1] Building level 3
[2] Building level 3
[0] Building level 4
[3] Building level 4
[1] Building level 4
[2] Building level 4
[0] Building level 5
[3] Building level 5
[1] Building level 5
[0] Building level 6
[3] Building level 6
[2] Building level 5
[0] Building level 7
[1] Building level 6
[0] Building level 8
[0] Building level 9
[3] Building level 7
[0] Building level 10
[0] Building level 11
[0] Building level 12
[0] Building level 13
[0] Building level 14
14 Level construction complete
[1] Building level 7
[3] Building level 8
[3] Building level 9
[3] Building level 10
[2] Building level 6
[3] Building level 11
[1] Building level 8
[3] Building level 12
[3] Building level 13
[3] Building level 14
[1] Building level 9
[1] Building level 10
[1] Building level 11
[1] Building level 12
[1] Building level 13
[1] Building level 14
[2] Building level 7
[2] Building level 8
[2] Building level 9
[2] Building level 10
[2] Building level 11
[2] Building level 12
[2] Building level 13
[2] Building level 14
GPU: 5 iters: 1.74114 s: 1.87933 GB/s
PCGAMG:  Solving for pd, Initial residual = 0.00102641, Final residual = 4.33069e-05, No Iterations 5
[1] Building level 0
[3] Building level 0
[2] Building level 0
[0] Building level 0
[3] Building level 1
[0] Building level 1
[1] Building level 1
[2] Building level 1
[0] Building level 2
[3] Building level 2
[2] Building level 2
[1] Building level 2
[3] Building level 3
[0] Building level 3
[1] Building level 3
[2] Building level 3
[0] Building level 4
[3] Building level 4
[1] Building level 4
[2] Building level 4
[0] Building level 5
[3] Building level 5
[1] Building level 5
[0] Building level 6
[2] Building level 5
[3] Building level 6
[0] Building level 7
[1] Building level 6
[0] Building level 8
[3] Building level 7
[0] Building level 9
[0] Building level 10
[0] Building level 11
[2] Building level 6
[0] Building level 12
[0] Building level 13
[0] Building level 14
14 Level construction complete
[3] Building level 8
[1] Building level 7
[3] Building level 9
[3] Building level 10
[3] Building level 11
[3] Building level 12
[3] Building level 13
[3] Building level 14
[1] Building level 8
[2] Building level 7
[1] Building level 9
[1] Building level 10
[1] Building level 11
[1] Building level 12
[1] Building level 13
[1] Building level 14
[2] Building level 8
[2] Building level 9
[2] Building level 10
[2] Building level 11
[2] Building level 12
[2] Building level 13
[2] Building level 14
GPU: 27 iters: 8.12494 s: 2.17476 GB/s
PCGAMG:  Solving for pd, Initial residual = 0.000373191, Final residual = 8.08689e-08, No Iterations 27
time step continuity errors : sum local = 3.72577e-12, global = 3.07613e-24, cumulative = -7.05328e-24
ExecutionTime = 638.02 s  ClockTime = 654 s

Courant Number mean: 4.49082e-05 max: 0.00972002 velocity magnitude: 0.149331
Time = 0.01

MULES: Solving for alpha1
Liquid phase volume fraction = 0.00275421  Min(alpha1) = -3.53501e-29  Max(alpha1) = 1
MULES: Solving for alpha1
Liquid phase volume fraction = 0.00275421  Min(alpha1) = -6.64367e-29  Max(alpha1) = 1
[1] Building level 0
[2] Building level 0
[0] Building level 0
[3] Building level 0
[3] Building level 1
[0] Building level 1
Reconstruction on level 1
[1] Building level 1
[2] Building level 1
[2] Building level 2
[1] Building level 2
Creating AMGLevel 
[0] Building level 2
Reconstruction on level 2
[3] Building level 2
[1] Building level 3
[2] Building level 3
Creating AMGLevel 
[0] Building level 3
Reconstruction on level 3
[3] Building level 3
[1] Building level 4
[2] Building level 4
Creating AMGLevel 
[0] Building level 4
Reconstruction on level 4
[3] Building level 4
[1] Building level 5
[2] Building level 5
Creating AMGLevel 
[0] Building level 5
Reconstruction on level 5
[1] Building level 6
[3] Building level 5
[2] Building level 6
[1] Building level 7
Creating AMGLevel 
[0] Building level 6
Reconstruction on level 6
[1] Building level 8
[2] Building level 7
[1] Building level 9
[1] Building level 10
Creating AMGLevel 
[0] Building level 7
Reconstruction on level 7
[1] Building level 11
[1] Building level 12
[2] Building level 8
[1] Building level 13
[1] Building level 14
[3] Building level 6
[2] Building level 9
Creating AMGLevel 
[0] Building level 8
Reconstruction on level 8
[2] Building level 10
[2] Building level 11
[2] Building level 12
[2] Building level 13
Creating AMGLevel 
[0] Building level 9
Reconstruction on level 9
[2] Building level 14
Creating AMGLevel 
[0] Building level 10
Reconstruction on level 10
Creating AMGLevel 
[0] Building level 11
Reconstruction on level 11
Creating AMGLevel 
[0] Building level 12
Reconstruction on level 12
Creating AMGLevel 
[0] Building level 13
Reconstruction on level 13
Creating AMGLevel 
[0] Building level 14
Reconstruction on level 14
Creating AMGLevel 
14 Level construction complete
[3] Building level 7
[3] Building level 8
[3] Building level 9
[3] Building level 10
[3] Building level 11
[3] Building level 12
[3] Building level 13
[3] Building level 14
GPU: 4 iters: 1.51347 s: 1.72964 GB/s
PCGAMG:  Solving for pd, Initial residual = 0.00258809, Final residual = 0.000100187, No Iterations 4
[2] Building level 0
[0] Building level 0
[3] Building level 0
[1] Building level 0
[3] Building level 1
[2] Building level 1
[0] Building level 1
[1] Building level 1
[2] Building level 2
[3] Building level 2
[1] Building level 2
[0] Building level 2
[2] Building level 3
[3] Building level 3
[1] Building level 3
[0] Building level 3
[1] Building level 4
[2] Building level 4
[3] Building level 4
[0] Building level 4
[1] Building level 5
[2] Building level 5
[0] Building level 5
[3] Building level 5
[1] Building level 6
[0] Building level 6
[2] Building level 6
[3] Building level 6
[1] Building level 7
[1] Building level 8
[0] Building level 7
[1] Building level 9
[2] Building level 7
[3] Building level 7
[1] Building level 10
[1] Building level 11
[1] Building level 12
[1] Building level 13
[1] Building level 14
[0] Building level 8
[2] Building level 8
[3] Building level 8
[0] Building level 9
[0] Building level 10
[2] Building level 9
[0] Building level 11
[3] Building level 9
[0] Building level 12
[0] Building level 13
[0] Building level 14
14 Level construction complete
[2] Building level 10
[3] Building level 10
[2] Building level 11
[2] Building level 12
[2] Building level 13
[3] Building level 11
[2] Building level 14
[3] Building level 12
[3] Building level 13
[3] Building level 14
GPU: 5 iters: 1.81354 s: 1.80431 GB/s
PCGAMG:  Solving for pd, Initial residual = 0.00100195, Final residual = 4.09819e-05, No Iterations 5
[1] Building level 0
[3] Building level 0
[2] Building level 0
[0] Building level 0
[3] Building level 1
[0] Building level 1
[1] Building level 1
[2] Building level 1
[3] Building level 2
[2] Building level 2
[0] Building level 2
[1] Building level 2
[0] Building level 3
[2] Building level 3
[3] Building level 3
[1] Building level 3
[1] Building level 4
[0] Building level 4
[3] Building level 4
[2] Building level 4
[1] Building level 5
[0] Building level 5
[3] Building level 5
[2] Building level 5
[1] Building level 6
[0] Building level 6
[3] Building level 6
[2] Building level 6
[1] Building level 7
[0] Building level 7
[1] Building level 8
[1] Building level 9
[0] Building level 8
[1] Building level 10
[3] Building level 7
[1] Building level 11
[1] Building level 12
[2] Building level 7
[1] Building level 13
[1] Building level 14
[0] Building level 9
[0] Building level 10
[0] Building level 11
[0] Building level 12
[0] Building level 13
[0] Building level 14
14 Level construction complete
[3] Building level 8
[2] Building level 8
[3] Building level 9
[2] Building level 9
[3] Building level 10
[2] Building level 10
[3] Building level 11
[3] Building level 12
[2] Building level 11
[3] Building level 13
[3] Building level 14
[2] Building level 12
[2] Building level 13
[2] Building level 14
GPU: 16 iters: 5.12706 s: 2.0423 GB/s
PCGAMG:  Solving for pd, Initial residual = 0.000322518, Final residual = 9.89927e-08, No Iterations 16
time step continuity errors : sum local = 4.54417e-12, global = -1.07862e-24, cumulative = -8.1319e-24
ExecutionTime = 697.39 s  ClockTime = 714 s

End

Finalising parallel run
