 Data for JOB [48796,1] offset 0

 ========================   JOB MAP   ========================

 Data for node: ivb106	Num slots: 6	Max slots: 0	Num procs: 6
 	Process OMPI jobid: [48796,1] App: 0 Process rank: 0
 	Process OMPI jobid: [48796,1] App: 0 Process rank: 1
 	Process OMPI jobid: [48796,1] App: 0 Process rank: 2
 	Process OMPI jobid: [48796,1] App: 0 Process rank: 3
 	Process OMPI jobid: [48796,1] App: 0 Process rank: 4
 	Process OMPI jobid: [48796,1] App: 0 Process rank: 5

 =============================================================
[ivb106:13582] MCW rank 3 bound to socket 0[core 3[hwt 0]]: [./././B/./././././.][./././././././././.]
[ivb106:13582] MCW rank 4 bound to socket 0[core 4[hwt 0]]: [././././B/././././.][./././././././././.]
[ivb106:13582] MCW rank 5 bound to socket 0[core 5[hwt 0]]: [./././././B/./././.][./././././././././.]
[ivb106:13582] MCW rank 0 bound to socket 0[core 0[hwt 0]]: [B/././././././././.][./././././././././.]
[ivb106:13582] MCW rank 1 bound to socket 0[core 1[hwt 0]]: [./B/./././././././.][./././././././././.]
[ivb106:13582] MCW rank 2 bound to socket 0[core 2[hwt 0]]: [././B/././././././.][./././././././././.]
/*---------------------------------------------------------------------------*\
| =========                 |                                                 |
| \\      /  F ield         | foam-extend: Open Source CFD                    |
|  \\    /   O peration     | Version:     3.1                                |
|   \\  /    A nd           | Web:         http://www.extend-project.de       |
|    \\/     M anipulation  |                                                 |
\*---------------------------------------------------------------------------*/
Build    : 3.1-e2da948002a2
Exec     : interFoam -parallel
Date     : May 21 2016
Time     : 21:43:37
Host     : ivb106
PID      : 13628
CtrlDict : /home-2/vplatonov/foam/foam-extend-3.1/etc/controlDict
Case     : /home/vplatonov/tests/rt12mln
nProcs   : 6
Slaves : 
5
(
ivb106.13627
ivb106.13638
ivb106.13633
ivb106.13630
ivb106.13641
)

Pstream initialized with:
    floatTransfer     : 0
    nProcsSimpleSum   : 0
    commsType         : blocking
SigFpe   : Enabling floating point exception trapping (FOAM_SIGFPE).

// * * * * * * * * * * * * * * * * * * * * * * * * * * * * * * * * * * * * * //
Create time

Create mesh for time = 0


Reading g
Reading field pd

Reading field alpha1

Reading field U

Reading/calculating face flux field phi

Reading transportProperties

Selecting incompressible transport model Newtonian
Selecting incompressible transport model Newtonian
Calculating field g.h

Selecting turbulence model type laminar
time step continuity errors : sum local = 0, global = 0, cumulative = 0
[4] Building level 0
[3] Building level 0
[1] Building level 0
[5] Building level 0
[2] Building level 0
Created persistent data with name pcorr
[0] Building level 0
[3] Building level 1
[4] Building level 1
[1] Building level 1
[2] Building level 1
[5] Building level 1
Creating AMGLevel 
[0] Building level 1
[3] Building level 2
[4] Building level 2
[1] Building level 2
[2] Building level 2
[5] Building level 2
Creating AMGLevel 
[0] Building level 2
[3] Building level 3
[4] Building level 3
[5] Building level 3
[2] Building level 3
[1] Building level 3
Creating AMGLevel 
[0] Building level 3
[3] Building level 4
[4] Building level 4
[5] Building level 4
[2] Building level 4
[1] Building level 4
[3] Building level 5
[4] Building level 5
Creating AMGLevel 
[0] Building level 4
[5] Building level 5
[2] Building level 5
[3] Building level 6
[1] Building level 5
[4] Building level 6
[3] Building level 7
[4] Building level 7
[5] Building level 6
[3] Building level 8
Creating AMGLevel 
[2] Building level 6
[0] Building level 5
[4] Building level 8
[3] Building level 9
[1] Building level 6
[4] Building level 9
[3] Building level 10
[4] Building level 10
[3] Building level 11
[5] Building level 7
[3] Building level 12
[3] Building level 13
[4] Building level 11
[3] Building level 14
[4] Building level 12
[4] Building level 13
[4] Building level 14
[2] Building level 7
[5] Building level 8
[1] Building level 7
[5] Building level 9
[2] Building level 8
Creating AMGLevel 
[5] Building level 10
[0] Building level 6
[5] Building level 11
[1] Building level 8
[5] Building level 12
[5] Building level 13
[5] Building level 14
[2] Building level 9
[1] Building level 9
[2] Building level 10
[1] Building level 10
[2] Building level 11
[2] Building level 12
[1] Building level 11
[2] Building level 13
Creating AMGLevel 
[0] Building level 7
[1] Building level 12
[2] Building level 14
[1] Building level 13
[1] Building level 14
Creating AMGLevel 
[0] Building level 8
Creating AMGLevel 
[0] Building level 9
Creating AMGLevel 
[0] Building level 10
Creating AMGLevel 
[0] Building level 11
Creating AMGLevel 
[0] Building level 12
Creating AMGLevel 
[0] Building level 13
Creating AMGLevel 
[0] Building level 14
Creating AMGLevel 
14 Level construction complete
PCGAMG:  Solving for pcorr, Initial residual = 0, Final residual = 0, No Iterations 0
time step continuity errors : sum local = 0, global = 0, cumulative = 0
Courant Number mean: 0 max: 0 velocity magnitude: 0

Starting time loop

Courant Number mean: 0 max: 0 velocity magnitude: 0
Time = 0.001

MULES: Solving for alpha1
Liquid phase volume fraction = 0.00275421  Min(alpha1) = 0  Max(alpha1) = 1
MULES: Solving for alpha1
Liquid phase volume fraction = 0.00275421  Min(alpha1) = 0  Max(alpha1) = 1
[3] Building level 0
[4] Building level 0
[2] Building level 0
[1] Building level 0
[5] Building level 0
Created persistent data with name pd
[0] Building level 0
[3] Building level 1
[4] Building level 1
[2] Building level 1
[1] Building level 1
[5] Building level 1
Creating AMGLevel 
[0] Building level 1
[3] Building level 2
[4] Building level 2
[2] Building level 2
[1] Building level 2
[5] Building level 2
Creating AMGLevel 
[0] Building level 2
[3] Building level 3
[4] Building level 3
[2] Building level 3
[1] Building level 3
[5] Building level 3
Creating AMGLevel 
[0] Building level 3
[3] Building level 4
[4] Building level 4
[2] Building level 4
[1] Building level 4
[5] Building level 4
Creating AMGLevel 
[0] Building level 4
[3] Building level 5
[4] Building level 5
[2] Building level 5
[5] Building level 5
[4] Building level 6
[3] Building level 6
[1] Building level 5
Creating AMGLevel 
[0] Building level 5
[3] Building level 7
[4] Building level 7
[4] Building level 8
[2] Building level 6
[5] Building level 6
[3] Building level 8
[4] Building level 9
[1] Building level 6
[3] Building level 9
[4] Building level 10
[3] Building level 10
[4] Building level 11
[3] Building level 11
[4] Building level 12
[3] Building level 12
[4] Building level 13
[3] Building level 13
[4] Building level 14
[3] Building level 14
[5] Building level 7
[2] Building level 7
Creating AMGLevel 
[0] Building level 6
[1] Building level 7
[5] Building level 8
[2] Building level 8
[5] Building level 9
[1] Building level 8
Creating AMGLevel 
[5] Building level 10
[0] Building level 7
[2] Building level 9
[5] Building level 11
[1] Building level 9
[5] Building level 12
[5] Building level 13
[2] Building level 10
[5] Building level 14
[1] Building level 10
[2] Building level 11
[1] Building level 11
Creating AMGLevel 
[0] Building level 8
[1] Building level 12
[2] Building level 12
[1] Building level 13
[1] Building level 14
[2] Building level 13
[2] Building level 14
Creating AMGLevel 
[0] Building level 9
Creating AMGLevel 
[0] Building level 10
Creating AMGLevel 
[0] Building level 11
Creating AMGLevel 
[0] Building level 12
Creating AMGLevel 
[0] Building level 13
Creating AMGLevel 
[0] Building level 14
Creating AMGLevel 
14 Level construction complete
GPU: 1 iters: 0.417807 s: 1.04426 GB/s
PCGAMG:  Solving for pd, Initial residual = 1, Final residual = 0.034974, No Iterations 1
[2] Building level 0
[1] Building level 0
[4] Building level 0
[5] Building level 0
[0] Building level 0
[3] Building level 0
[5] Building level 1
[3] Building level 1
[4] Building level 1
[1] Building level 1
[2] Building level 1
[0] Building level 1
[3] Building level 2
[4] Building level 2
[5] Building level 2
[2] Building level 2
[0] Building level 2
[1] Building level 2
[3] Building level 3
[5] Building level 3
[2] Building level 3
[4] Building level 3
[0] Building level 3
[1] Building level 3
[3] Building level 4
[5] Building level 4
[2] Building level 4
[4] Building level 4
[0] Building level 4
[1] Building level 4
[3] Building level 5
[5] Building level 5
[2] Building level 5
[4] Building level 5
[3] Building level 6
[0] Building level 5
[5] Building level 6
[1] Building level 5
[3] Building level 7
[2] Building level 6
[4] Building level 6
[3] Building level 8
[5] Building level 7
[3] Building level 9
[3] Building level 10
[3] Building level 11
[3] Building level 12
[3] Building level 13
[0] Building level 6
[3] Building level 14
[2] Building level 7
[5] Building level 8
[4] Building level 7
[5] Building level 9
[5] Building level 10
[1] Building level 6
[5] Building level 11
[4] Building level 8
[2] Building level 8
[5] Building level 12
[5] Building level 13
[5] Building level 14
[4] Building level 9
[2] Building level 9
[0] Building level 7
[4] Building level 10
[2] Building level 10
[2] Building level 11
[4] Building level 11
[4] Building level 12
[2] Building level 12
[4] Building level 13
[2] Building level 13
[4] Building level 14
[2] Building level 14
[0] Building level 8
[1] Building level 7
[0] Building level 9
[0] Building level 10
[0] Building level 11
[0] Building level 12
[0] Building level 13
[0] Building level 14
14 Level construction complete
[1] Building level 8
[1] Building level 9
[1] Building level 10
[1] Building level 11
[1] Building level 12
[1] Building level 13
[1] Building level 14
GPU: 3 iters: 0.820445 s: 1.59536 GB/s
PCGAMG:  Solving for pd, Initial residual = 0.0223995, Final residual = 0.00099488, No Iterations 3
[0] Building level 0
[1] Building level 0
[3] Building level 0
[4] Building level 0
[2] Building level 0
[5] Building level 0
[5] Building level 1
[3] Building level 1
[4] Building level 1
[1] Building level 1
[2] Building level 1
[0] Building level 1
[3] Building level 2
[4] Building level 2
[5] Building level 2
[2] Building level 2
[0] Building level 2
[1] Building level 2
[3] Building level 3
[5] Building level 3
[2] Building level 3
[4] Building level 3
[0] Building level 3
[1] Building level 3
[3] Building level 4
[5] Building level 4
[2] Building level 4
[4] Building level 4
[0] Building level 4
[1] Building level 4
[3] Building level 5
[5] Building level 5
[2] Building level 5
[4] Building level 5
[3] Building level 6
[0] Building level 5
[1] Building level 5
[3] Building level 7
[5] Building level 6
[2] Building level 6
[3] Building level 8
[4] Building level 6
[3] Building level 9
[3] Building level 10
[3] Building level 11
[5] Building level 7
[3] Building level 12
[3] Building level 13
[3] Building level 14
[0] Building level 6
[2] Building level 7
[4] Building level 7
[5] Building level 8
[5] Building level 9
[1] Building level 6
[2] Building level 8
[5] Building level 10
[4] Building level 8
[5] Building level 11
[5] Building level 12
[0] Building level 7
[5] Building level 13
[5] Building level 14
[2] Building level 9
[4] Building level 9
[2] Building level 10
[4] Building level 10
[2] Building level 11
[2] Building level 12
[4] Building level 11
[2] Building level 13
[2] Building level 14
[4] Building level 12
[4] Building level 13
[4] Building level 14
[0] Building level 8
[0] Building level 9
[1] Building level 7
[0] Building level 10
[0] Building level 11
[0] Building level 12
[0] Building level 13
[0] Building level 14
14 Level construction complete
[1] Building level 8
[1] Building level 9
[1] Building level 10
[1] Building level 11
[1] Building level 12
[1] Building level 13
[1] Building level 14
GPU: 50 iters: 10.3894 s: 2.09974 GB/s
PCGAMG:  Solving for pd, Initial residual = 0.00568273, Final residual = 6.70063e-07, No Iterations 50
time step continuity errors : sum local = 5.00274e-11, global = -1.64457e-24, cumulative = -1.64457e-24
ExecutionTime = 98.21 s  ClockTime = 116 s

Courant Number mean: 4.83215e-06 max: 0.00215803 velocity magnitude: 0.0337192
Time = 0.002

MULES: Solving for alpha1
Liquid phase volume fraction = 0.00275421  Min(alpha1) = 0  Max(alpha1) = 1
MULES: Solving for alpha1
Liquid phase volume fraction = 0.00275421  Min(alpha1) = 0  Max(alpha1) = 1
[4] Building level 0
[0] Building level 0
[5] Building level 0
[2] Building level 0
[1] Building level 0
[3] Building level 0
[5] Building level 1
[3] Building level 1
[2] Building level 1
[0] Building level 1
Reconstruction on level 1
[4] Building level 1
[1] Building level 1
[3] Building level 2
[2] Building level 2
[3] Building level 3
[2] Building level 3
[3] Building level 4
[2] Building level 4
[3] Building level 5
[2] Building level 5
[4] Building level 2
[5] Building level 2
[1] Building level 2
Creating AMGLevel 
[0] Building level 2
Reconstruction on level 2
[3] Building level 6
[2] Building level 6
[3] Building level 7
[2] Building level 7
[3] Building level 8
[2] Building level 8
[3] Building level 9
[3] Building level 10
[2] Building level 9
[3] Building level 11
[3] Building level 12
[2] Building level 10
[3] Building level 13
[3] Building level 14
[2] Building level 11
[2] Building level 12
[2] Building level 13
[2] Building level 14
[4] Building level 3
[5] Building level 3
[1] Building level 3
Creating AMGLevel 
[0] Building level 3
Reconstruction on level 3
[4] Building level 4
[5] Building level 4
[1] Building level 4
Creating AMGLevel 
[0] Building level 4
Reconstruction on level 4
[4] Building level 5
[5] Building level 5
[1] Building level 5
Creating AMGLevel 
[0] Building level 5
Reconstruction on level 5
[5] Building level 6
[4] Building level 6
[1] Building level 6
Creating AMGLevel 
[0] Building level 6
Reconstruction on level 6
[5] Building level 7
[4] Building level 7
[1] Building level 7
Creating AMGLevel 
[0] Building level 7
Reconstruction on level 7
[5] Building level 8
[4] Building level 8
Creating AMGLevel 
[0] Building level 8
Reconstruction on level 8
[1] Building level 8
[5] Building level 9
[4] Building level 9
[5] Building level 10
Creating AMGLevel 
[0] Building level 9
Reconstruction on level 9
[4] Building level 10
[5] Building level 11
[5] Building level 12
[4] Building level 11
[5] Building level 13
[1] Building level 9
[5] Building level 14
[4] Building level 12
Creating AMGLevel 
[0] Building level 10
Reconstruction on level 10
[4] Building level 13
Creating AMGLevel 
[0] Building level 11
Reconstruction on level 11
[4] Building level 14
Creating AMGLevel 
[0] Building level 12
Reconstruction on level 12
[1] Building level 10
Creating AMGLevel 
[0] Building level 13
Reconstruction on level 13
[1] Building level 11
Creating AMGLevel 
[0] Building level 14
Reconstruction on level 14
Creating AMGLevel 
14 Level construction complete
[1] Building level 12
[1] Building level 13
[1] Building level 14
GPU: 29 iters: 6.19738 s: 2.04163 GB/s
PCGAMG:  Solving for pd, Initial residual = 0.00463136, Final residual = 0.000194032, No Iterations 29
[2] Building level 0
[1] Building level 0
[3] Building level 0
[4] Building level 0
[0] Building level 0
[5] Building level 0
[5] Building level 1
[3] Building level 1
[4] Building level 1
[1] Building level 1
[0] Building level 1
[2] Building level 1
[3] Building level 2
[5] Building level 2
[4] Building level 2
[2] Building level 2
[0] Building level 2
[1] Building level 2
[3] Building level 3
[5] Building level 3
[2] Building level 3
[4] Building level 3
[0] Building level 3
[1] Building level 3
[3] Building level 4
[5] Building level 4
[2] Building level 4
[1] Building level 4
[0] Building level 4
[4] Building level 4
[3] Building level 5
[5] Building level 5
[1] Building level 5
[2] Building level 5
[0] Building level 5
[4] Building level 5
[3] Building level 6
[1] Building level 6
[5] Building level 6
[2] Building level 6
[0] Building level 6
[3] Building level 7
[1] Building level 7
[4] Building level 6
[5] Building level 7
[0] Building level 7
[3] Building level 8
[2] Building level 7
[1] Building level 8
[5] Building level 8
[3] Building level 9
[3] Building level 10
[1] Building level 9
[3] Building level 11
[0] Building level 8
[5] Building level 9
[2] Building level 8
[1] Building level 10
[3] Building level 12
[3] Building level 13
[3] Building level 14
[1] Building level 11
[5] Building level 10
[1] Building level 12
[4] Building level 7
[1] Building level 13
[5] Building level 11
[0] Building level 9
[1] Building level 14
[5] Building level 12
[5] Building level 13
[5] Building level 14
[2] Building level 9
[0] Building level 10
[0] Building level 11
[2] Building level 10
[0] Building level 12
[0] Building level 13
[2] Building level 11
[0] Building level 14
14 Level construction complete
[2] Building level 12
[2] Building level 13
[2] Building level 14
[4] Building level 8
[4] Building level 9
[4] Building level 10
[4] Building level 11
[4] Building level 12
[4] Building level 13
[4] Building level 14
GPU: 41 iters: 8.68296 s: 2.06017 GB/s
PCGAMG:  Solving for pd, Initial residual = 0.00391386, Final residual = 0.000149119, No Iterations 41
[0] Building level 0
[2] Building level 0
[4] Building level 0
[1] Building level 0
[5] Building level 0
[3] Building level 0
[5] Building level 1
[3] Building level 1
[4] Building level 1
[2] Building level 1
[1] Building level 1
[0] Building level 1
[3] Building level 2
[4] Building level 2
[2] Building level 2
[5] Building level 2
[1] Building level 2
[0] Building level 2
[3] Building level 3
[2] Building level 3
[5] Building level 3
[4] Building level 3
[1] Building level 3
[0] Building level 3
[3] Building level 4
[5] Building level 4
[2] Building level 4
[1] Building level 4
[4] Building level 4
[0] Building level 4
[3] Building level 5
[1] Building level 5
[5] Building level 5
[2] Building level 5
[0] Building level 5
[4] Building level 5
[3] Building level 6
[1] Building level 6
[5] Building level 6
[2] Building level 6
[0] Building level 6
[3] Building level 7
[1] Building level 7
[4] Building level 6
[5] Building level 7
[2] Building level 7
[1] Building level 8
[3] Building level 8
[0] Building level 7
[1] Building level 9
[5] Building level 8
[3] Building level 9
[2] Building level 8
[1] Building level 10
[3] Building level 10
[1] Building level 11
[1] Building level 12
[3] Building level 11
[4] Building level 7
[1] Building level 13
[5] Building level 9
[3] Building level 12
[3] Building level 13
[3] Building level 14
[1] Building level 14
[2] Building level 9
[0] Building level 8
[5] Building level 10
[5] Building level 11
[2] Building level 10
[5] Building level 12
[5] Building level 13
[5] Building level 14
[2] Building level 11
[0] Building level 9
[2] Building level 12
[2] Building level 13
[2] Building level 14
[4] Building level 8
[0] Building level 10
[0] Building level 11
[0] Building level 12
[0] Building level 13
[0] Building level 14
14 Level construction complete
[4] Building level 9
[4] Building level 10
[4] Building level 11
[4] Building level 12
[4] Building level 13
[4] Building level 14
GPU: 50 iters: 10.5754 s: 2.06282 GB/s
PCGAMG:  Solving for pd, Initial residual = 0.00344702, Final residual = 9.81576e-05, No Iterations 50
time step continuity errors : sum local = 4.58753e-08, global = -4.1264e-08, cumulative = -4.1264e-08
ExecutionTime = 158.14 s  ClockTime = 178 s

Courant Number mean: 1.35364e-05 max: 0.220056 velocity magnitude: 1.71918
Time = 0.003

MULES: Solving for alpha1
Liquid phase volume fraction = 0.00275424  Min(alpha1) = -8.75636e-32  Max(alpha1) = 1
MULES: Solving for alpha1
Liquid phase volume fraction = 0.00275426  Min(alpha1) = -1.92541e-30  Max(alpha1) = 1
[3] Building level 0
[5] Building level 0
[2] Building level 0
[4] Building level 0
[1] Building level 0
[0] Building level 0
[5] Building level 1
[3] Building level 1
[4] Building level 1
[2] Building level 1
[0] Building level 1
Reconstruction on level 1
[1] Building level 1
[3] Building level 2
[2] Building level 2
[3] Building level 3
[2] Building level 3
[3] Building level 4
[2] Building level 4
[3] Building level 5
[2] Building level 5
[4] Building level 2
[5] Building level 2
[1] Building level 2
Creating AMGLevel 
[0] Building level 2
Reconstruction on level 2
[3] Building level 6
[2] Building level 6
[3] Building level 7
[2] Building level 7
[3] Building level 8
[3] Building level 9
[2] Building level 8
[3] Building level 10
[3] Building level 11
[3] Building level 12
[2] Building level 9
[3] Building level 13
[3] Building level 14
[2] Building level 10
[2] Building level 11
[2] Building level 12
[2] Building level 13
[2] Building level 14
[4] Building level 3
[5] Building level 3
[1] Building level 3
Creating AMGLevel 
[0] Building level 3
Reconstruction on level 3
[5] Building level 4
[4] Building level 4
[1] Building level 4
Creating AMGLevel 
[0] Building level 4
Reconstruction on level 4
[5] Building level 5
[4] Building level 5
Creating AMGLevel 
[0] Building level 5
Reconstruction on level 5
[1] Building level 5
[5] Building level 6
[4] Building level 6
[5] Building level 7
Creating AMGLevel 
[4] Building level 7
[0] Building level 6
Reconstruction on level 6
[5] Building level 8
[1] Building level 6
[4] Building level 8
[5] Building level 9
Creating AMGLevel 
[5] Building level 10
[0] Building level 7
Reconstruction on level 7
[4] Building level 9
[5] Building level 11
[5] Building level 12
[5] Building level 13
[4] Building level 10
[5] Building level 14
[4] Building level 11
[4] Building level 12
[4] Building level 13
[4] Building level 14
Creating AMGLevel 
[0] Building level 8
Reconstruction on level 8
[1] Building level 7
Creating AMGLevel 
[0] Building level 9
Reconstruction on level 9
Creating AMGLevel 
[0] Building level 10
Reconstruction on level 10
[1] Building level 8
Creating AMGLevel 
[0] Building level 11
Reconstruction on level 11
Creating AMGLevel 
[0] Building level 12
Reconstruction on level 12
Creating AMGLevel 
[0] Building level 13
Reconstruction on level 13
Creating AMGLevel 
[0] Building level 14
Reconstruction on level 14
Creating AMGLevel 
14 Level construction complete
[1] Building level 9
[1] Building level 10
[1] Building level 11
[1] Building level 12
[1] Building level 13
[1] Building level 14
GPU: 50 iters: 11.342 s: 1.92339 GB/s
PCGAMG:  Solving for pd, Initial residual = 0.00765023, Final residual = 0.00334025, No Iterations 50
[1] Building level 0
[0] Building level 0
[5] Building level 0
[2] Building level 0
[4] Building level 0
[3] Building level 0
[5] Building level 1
[3] Building level 1
[2] Building level 1
[1] Building level 1
[0] Building level 1
[4] Building level 1
[3] Building level 2
[5] Building level 2
[4] Building level 2
[2] Building level 2
[0] Building level 2
[1] Building level 2
[3] Building level 3
[5] Building level 3
[2] Building level 3
[4] Building level 3
[0] Building level 3
[1] Building level 3
[2] Building level 4
[3] Building level 4
[1] Building level 4
[5] Building level 4
[4] Building level 4
[0] Building level 4
[2] Building level 5
[3] Building level 5
[1] Building level 5
[5] Building level 5
[4] Building level 5
[0] Building level 5
[2] Building level 6
[3] Building level 6
[1] Building level 6
[5] Building level 6
[2] Building level 7
[4] Building level 6
[3] Building level 7
[0] Building level 6
[2] Building level 8
[1] Building level 7
[5] Building level 7
[2] Building level 9
[3] Building level 8
[2] Building level 10
[2] Building level 11
[2] Building level 12
[1] Building level 8
[2] Building level 13
[3] Building level 9
[2] Building level 14
[4] Building level 7
[5] Building level 8
[3] Building level 10
[3] Building level 11
[3] Building level 12
[1] Building level 9
[3] Building level 13
[3] Building level 14
[5] Building level 9
[1] Building level 10
[0] Building level 7
[5] Building level 10
[1] Building level 11
[1] Building level 12
[5] Building level 11
[1] Building level 13
[4] Building level 8
[1] Building level 14
[5] Building level 12
[5] Building level 13
[5] Building level 14
[4] Building level 9
[0] Building level 8
[4] Building level 10
[4] Building level 11
[4] Building level 12
[4] Building level 13
[4] Building level 14
[0] Building level 9
[0] Building level 10
[0] Building level 11
[0] Building level 12
[0] Building level 13
[0] Building level 14
14 Level construction complete
GPU: 50 iters: 11.3635 s: 1.91975 GB/s
PCGAMG:  Solving for pd, Initial residual = 0.00859928, Final residual = 0.00164243, No Iterations 50
[5] Building level 0
[1] Building level 0
[4] Building level 0
[3] Building level 0
[0] Building level 0
[2] Building level 0
[5] Building level 1
[3] Building level 1
[4] Building level 1
[0] Building level 1
[2] Building level 1
[1] Building level 1
[3] Building level 2
[4] Building level 2
[5] Building level 2
[2] Building level 2
[0] Building level 2
[1] Building level 2
[3] Building level 3
[2] Building level 3
[4] Building level 3
[5] Building level 3
[0] Building level 3
[1] Building level 3
[2] Building level 4
[3] Building level 4
[1] Building level 4
[5] Building level 4
[4] Building level 4
[0] Building level 4
[2] Building level 5
[3] Building level 5
[1] Building level 5
[5] Building level 5
[4] Building level 5
[0] Building level 5
[2] Building level 6
[3] Building level 6
[1] Building level 6
[2] Building level 7
[5] Building level 6
[3] Building level 7
[4] Building level 6
[2] Building level 8
[0] Building level 6
[1] Building level 7
[2] Building level 9
[2] Building level 10
[2] Building level 11
[3] Building level 8
[2] Building level 12
[2] Building level 13
[2] Building level 14
[1] Building level 8
[3] Building level 9
[5] Building level 7
[1] Building level 9
[3] Building level 10
[4] Building level 7
[3] Building level 11
[0] Building level 7
[3] Building level 12
[1] Building level 10
[1] Building level 11
[3] Building level 13
[3] Building level 14
[1] Building level 12
[1] Building level 13
[1] Building level 14
[5] Building level 8
[4] Building level 8
[5] Building level 9
[0] Building level 8
[5] Building level 10
[4] Building level 9
[5] Building level 11
[5] Building level 12
[5] Building level 13
[5] Building level 14
[4] Building level 10
[0] Building level 9
[4] Building level 11
[4] Building level 12
[4] Building level 13
[4] Building level 14
[0] Building level 10
[0] Building level 11
[0] Building level 12
[0] Building level 13
[0] Building level 14
14 Level construction complete
GPU: 50 iters: 11.3683 s: 1.91894 GB/s
PCGAMG:  Solving for pd, Initial residual = 0.00669248, Final residual = 3.7847e-05, No Iterations 50
time step continuity errors : sum local = 2.41364e-08, global = -2.23585e-08, cumulative = -6.36225e-08
ExecutionTime = 226.94 s  ClockTime = 250 s

Courant Number mean: 1.63269e-05 max: 0.132386 velocity magnitude: 1.03427
Time = 0.004

MULES: Solving for alpha1
Liquid phase volume fraction = 0.00275427  Min(alpha1) = -9.31066e-30  Max(alpha1) = 1
MULES: Solving for alpha1
Liquid phase volume fraction = 0.00275428  Min(alpha1) = -8.45245e-30  Max(alpha1) = 1
[0] Building level 0
[5] Building level 0
[2] Building level 0
[1] Building level 0
[3] Building level 0
[4] Building level 0
[5] Building level 1
[3] Building level 1
[4] Building level 1
[2] Building level 1
[1] Building level 1
[0] Building level 1
Reconstruction on level 1
[3] Building level 2
[4] Building level 2
[2] Building level 2
[3] Building level 3
[2] Building level 3
[3] Building level 4
[2] Building level 4
[4] Building level 3
[3] Building level 5
[2] Building level 5
[5] Building level 2
Creating AMGLevel 
[1] Building level 2
[0] Building level 2
Reconstruction on level 2
[3] Building level 6
[4] Building level 4
[2] Building level 6
[3] Building level 7
[2] Building level 7
[3] Building level 8
[3] Building level 9
[2] Building level 8
[3] Building level 10
[3] Building level 11
[3] Building level 12
[2] Building level 9
[3] Building level 13
[3] Building level 14
[2] Building level 10
[2] Building level 11
[4] Building level 5
[2] Building level 12
[2] Building level 13
[2] Building level 14
[5] Building level 3
Creating AMGLevel 
[1] Building level 3
[0] Building level 3
Reconstruction on level 3
[4] Building level 6
[4] Building level 7
[4] Building level 8
[4] Building level 9
[4] Building level 10
[4] Building level 11
[4] Building level 12
[4] Building level 13
[4] Building level 14
[5] Building level 4
Creating AMGLevel 
[0] Building level 4
Reconstruction on level 4
[1] Building level 4
[5] Building level 5
Creating AMGLevel 
[0] Building level 5
Reconstruction on level 5
[1] Building level 5
[5] Building level 6
Creating AMGLevel 
[0] Building level 6
Reconstruction on level 6
[5] Building level 7
[1] Building level 6
[5] Building level 8
Creating AMGLevel 
[0] Building level 7
Reconstruction on level 7
[5] Building level 9
[5] Building level 10
[5] Building level 11
[1] Building level 7
[5] Building level 12
[5] Building level 13
[5] Building level 14
Creating AMGLevel 
[0] Building level 8
Reconstruction on level 8
Creating AMGLevel 
[0] Building level 9
Reconstruction on level 9
[1] Building level 8
Creating AMGLevel 
[0] Building level 10
Reconstruction on level 10
Creating AMGLevel 
[0] Building level 11
Reconstruction on level 11
[1] Building level 9
Creating AMGLevel 
[0] Building level 12
Reconstruction on level 12
Creating AMGLevel 
[0] Building level 13
Reconstruction on level 13
Creating AMGLevel 
[0] Building level 14
Reconstruction on level 14
Creating AMGLevel 
14 Level construction complete
[1] Building level 10
[1] Building level 11
[1] Building level 12
[1] Building level 13
[1] Building level 14
GPU: 50 iters: 10.9792 s: 1.98694 GB/s
PCGAMG:  Solving for pd, Initial residual = 0.00887836, Final residual = 0.00170389, No Iterations 50
[2] Building level 0
[3] Building level 0
[4] Building level 0
[5] Building level 0
[0] Building level 0
[1] Building level 0
[5] Building level 1
[3] Building level 1
[0] Building level 1
[4] Building level 1
[1] Building level 1
[2] Building level 1
[3] Building level 2
[5] Building level 2
[0] Building level 2
[4] Building level 2
[1] Building level 2
[2] Building level 2
[3] Building level 3
[0] Building level 3
[4] Building level 3
[1] Building level 3
[2] Building level 3
[5] Building level 3
[3] Building level 4
[0] Building level 4
[2] Building level 4
[1] Building level 4
[4] Building level 4
[5] Building level 4
[3] Building level 5
[2] Building level 5
[0] Building level 5
[1] Building level 5
[4] Building level 5
[5] Building level 5
[3] Building level 6
[0] Building level 6
[2] Building level 6
[1] Building level 6
[0] Building level 7
[3] Building level 7
[2] Building level 7
[4] Building level 6
[0] Building level 8
[5] Building level 6
[3] Building level 8
[2] Building level 8
[0] Building level 9
[1] Building level 7
[3] Building level 9
[2] Building level 9
[0] Building level 10
[3] Building level 10
[0] Building level 11
[2] Building level 10
[4] Building level 7
[0] Building level 12
[3] Building level 11
[0] Building level 13
[0] Building level 14
[2] Building level 11
14 Level construction complete
[3] Building level 12
[3] Building level 13
[2] Building level 12
[3] Building level 14
[2] Building level 13
[2] Building level 14
[1] Building level 8
[1] Building level 9
[4] Building level 8
[5] Building level 7
[1] Building level 10
[1] Building level 11
[1] Building level 12
[4] Building level 9
[1] Building level 13
[1] Building level 14
[4] Building level 10
[4] Building level 11
[5] Building level 8
[4] Building level 12
[4] Building level 13
[4] Building level 14
[5] Building level 9
[5] Building level 10
[5] Building level 11
[5] Building level 12
[5] Building level 13
[5] Building level 14
GPU: 50 iters: 10.9802 s: 1.98677 GB/s
PCGAMG:  Solving for pd, Initial residual = 0.00873017, Final residual = 0.00038367, No Iterations 50
[3] Building level 0
[1] Building level 0
[2] Building level 0
[5] Building level 0
[4] Building level 0
[0] Building level 0
[5] Building level 1
[3] Building level 1
[4] Building level 1
[1] Building level 1
[2] Building level 1
[0] Building level 1
[3] Building level 2
[5] Building level 2
[4] Building level 2
[2] Building level 2
[1] Building level 2
[0] Building level 2
[4] Building level 3
[2] Building level 3
[1] Building level 3
[3] Building level 3
[0] Building level 3
[5] Building level 3
[2] Building level 4
[0] Building level 4
[3] Building level 4
[1] Building level 4
[5] Building level 4
[4] Building level 4
[2] Building level 5
[0] Building level 5
[3] Building level 5
[1] Building level 5
[5] Building level 5
[4] Building level 5
[2] Building level 6
[0] Building level 6
[3] Building level 6
[1] Building level 6
[2] Building level 7
[0] Building level 7
[5] Building level 6
[3] Building level 7
[2] Building level 8
[1] Building level 7
[0] Building level 8
[2] Building level 9
[4] Building level 6
[2] Building level 10
[0] Building level 9
[3] Building level 8
[2] Building level 11
[2] Building level 12
[2] Building level 13
[2] Building level 14
[0] Building level 10
[1] Building level 8
[0] Building level 11
[0] Building level 12
[3] Building level 9
[0] Building level 13
[0] Building level 14
14 Level construction complete
[5] Building level 7
[3] Building level 10
[1] Building level 9
[3] Building level 11
[3] Building level 12
[3] Building level 13
[3] Building level 14
[1] Building level 10
[1] Building level 11
[1] Building level 12
[1] Building level 13
[1] Building level 14
[4] Building level 7
[5] Building level 8
[5] Building level 9
[5] Building level 10
[4] Building level 8
[5] Building level 11
[5] Building level 12
[5] Building level 13
[5] Building level 14
[4] Building level 9
[4] Building level 10
[4] Building level 11
[4] Building level 12
[4] Building level 13
[4] Building level 14
GPU: 50 iters: 11.0034 s: 1.98258 GB/s
PCGAMG:  Solving for pd, Initial residual = 0.00689937, Final residual = 0.00167074, No Iterations 50
time step continuity errors : sum local = 8.87487e-08, global = -1.05358e-08, cumulative = -7.41583e-08
ExecutionTime = 294.69 s  ClockTime = 321 s

Courant Number mean: 2.02873e-05 max: 0.074312 velocity magnitude: 0.580563
Time = 0.005

MULES: Solving for alpha1
Liquid phase volume fraction = 0.00275429  Min(alpha1) = -2.57963e-29  Max(alpha1) = 1
MULES: Solving for alpha1
Liquid phase volume fraction = 0.00275429  Min(alpha1) = -4.68583e-31  Max(alpha1) = 1
[0] Building level 0
[2] Building level 0
[5] Building level 0
[3] Building level 0
[4] Building level 0
[1] Building level 0
[5] Building level 1
[3] Building level 1
[2] Building level 1
[1] Building level 1
[0] Building level 1
Reconstruction on level 1
[4] Building level 1
[3] Building level 2
[2] Building level 2
[3] Building level 3
[2] Building level 3
[3] Building level 4
[2] Building level 4
[3] Building level 5
[2] Building level 5
[4] Building level 2
[5] Building level 2
Creating AMGLevel 
[1] Building level 2
[0] Building level 2
Reconstruction on level 2
[3] Building level 6
[2] Building level 6
[3] Building level 7
[2] Building level 7
[3] Building level 8
[3] Building level 9
[2] Building level 8
[3] Building level 10
[3] Building level 11
[2] Building level 9
[3] Building level 12
[3] Building level 13
[3] Building level 14
[2] Building level 10
[2] Building level 11
[2] Building level 12
[2] Building level 13
[2] Building level 14
[4] Building level 3
[5] Building level 3
[1] Building level 3
Creating AMGLevel 
[0] Building level 3
Reconstruction on level 3
[5] Building level 4
[4] Building level 4
Creating AMGLevel 
[0] Building level 4
Reconstruction on level 4
[1] Building level 4
[5] Building level 5
[4] Building level 5
Creating AMGLevel 
[0] Building level 5
Reconstruction on level 5
[1] Building level 5
[5] Building level 6
[4] Building level 6
Creating AMGLevel 
[0] Building level 6
Reconstruction on level 6
[5] Building level 7
[4] Building level 7
[5] Building level 8
[1] Building level 6
Creating AMGLevel 
[0] Building level 7
Reconstruction on level 7
[5] Building level 9
[4] Building level 8
[5] Building level 10
[5] Building level 11
[5] Building level 12
[5] Building level 13
[4] Building level 9
[5] Building level 14
Creating AMGLevel 
[0] Building level 8
Reconstruction on level 8
[4] Building level 10
[4] Building level 11
[4] Building level 12
Creating AMGLevel 
[0] Building level 9
Reconstruction on level 9
[4] Building level 13
[4] Building level 14
[1] Building level 7
Creating AMGLevel 
[0] Building level 10
Reconstruction on level 10
Creating AMGLevel 
[0] Building level 11
Reconstruction on level 11
Creating AMGLevel 
[0] Building level 12
Reconstruction on level 12
Creating AMGLevel 
[0] Building level 13
Reconstruction on level 13
Creating AMGLevel 
[0] Building level 14
Reconstruction on level 14
Creating AMGLevel 
14 Level construction complete
[1] Building level 8
[1] Building level 9
[1] Building level 10
[1] Building level 11
[1] Building level 12
[1] Building level 13
[1] Building level 14
GPU: 50 iters: 11.1045 s: 1.96452 GB/s
PCGAMG:  Solving for pd, Initial residual = 0.0109391, Final residual = 0.0108982, No Iterations 50
[5] Building level 0
[3] Building level 0
[4] Building level 0
[2] Building level 0
[1] Building level 0
[0] Building level 0
[5] Building level 1
[3] Building level 1
[4] Building level 1
[2] Building level 1
[1] Building level 1
[0] Building level 1
[3] Building level 2
[4] Building level 2
[5] Building level 2
[2] Building level 2
[0] Building level 2
[1] Building level 2
[3] Building level 3
[4] Building level 3
[2] Building level 3
[5] Building level 3
[0] Building level 3
[1] Building level 3
[3] Building level 4
[4] Building level 4
[0] Building level 4
[2] Building level 4
[1] Building level 4
[5] Building level 4
[3] Building level 5
[4] Building level 5
[2] Building level 5
[0] Building level 5
[1] Building level 5
[5] Building level 5
[3] Building level 6
[4] Building level 6
[2] Building level 6
[0] Building level 6
[1] Building level 6
[5] Building level 6
[3] Building level 7
[4] Building level 7
[3] Building level 8
[2] Building level 7
[0] Building level 7
[3] Building level 9
[4] Building level 8
[1] Building level 7
[3] Building level 10
[5] Building level 7
[3] Building level 11
[3] Building level 12
[2] Building level 8
[3] Building level 13
[3] Building level 14
[4] Building level 9
[0] Building level 8
[4] Building level 10
[2] Building level 9
[4] Building level 11
[4] Building level 12
[1] Building level 8
[0] Building level 9
[5] Building level 8
[2] Building level 10
[4] Building level 13
[4] Building level 14
[2] Building level 11
[0] Building level 10
[2] Building level 12
[2] Building level 13
[2] Building level 14
[0] Building level 11
[1] Building level 9
[0] Building level 12
[5] Building level 9
[0] Building level 13
[0] Building level 14
14 Level construction complete
[1] Building level 10
[5] Building level 10
[1] Building level 11
[5] Building level 11
[1] Building level 12
[5] Building level 12
[1] Building level 13
[1] Building level 14
[5] Building level 13
[5] Building level 14
GPU: 50 iters: 11.1521 s: 1.95614 GB/s
PCGAMG:  Solving for pd, Initial residual = 0.018193, Final residual = 0.00302448, No Iterations 50
[5] Building level 0
[2] Building level 0
[1] Building level 0
[3] Building level 0
[0] Building level 0
[4] Building level 0
[5] Building level 1
[3] Building level 1
[4] Building level 1
[0] Building level 1
[2] Building level 1
[1] Building level 1
[3] Building level 2
[4] Building level 2
[0] Building level 2
[5] Building level 2
[2] Building level 2
[1] Building level 2
[3] Building level 3
[4] Building level 3
[2] Building level 3
[0] Building level 3
[5] Building level 3
[1] Building level 3
[3] Building level 4
[0] Building level 4
[4] Building level 4
[1] Building level 4
[2] Building level 4
[5] Building level 4
[3] Building level 5
[4] Building level 5
[0] Building level 5
[2] Building level 5
[1] Building level 5
[5] Building level 5
[3] Building level 6
[4] Building level 6
[0] Building level 6
[3] Building level 7
[2] Building level 6
[4] Building level 7
[3] Building level 8
[1] Building level 6
[5] Building level 6
[0] Building level 7
[3] Building level 9
[3] Building level 10
[3] Building level 11
[4] Building level 8
[3] Building level 12
[3] Building level 13
[3] Building level 14
[0] Building level 8
[4] Building level 9
[2] Building level 7
[4] Building level 10
[4] Building level 11
[0] Building level 9
[4] Building level 12
[4] Building level 13
[4] Building level 14
[0] Building level 10
[0] Building level 11
[5] Building level 7
[0] Building level 12
[0] Building level 13
[1] Building level 7
[0] Building level 14
[2] Building level 8
14 Level construction complete
[2] Building level 9
[5] Building level 8
[2] Building level 10
[1] Building level 8
[2] Building level 11
[2] Building level 12
[2] Building level 13
[2] Building level 14
[5] Building level 9
[1] Building level 9
[5] Building level 10
[5] Building level 11
[1] Building level 10
[5] Building level 12
[5] Building level 13
[5] Building level 14
[1] Building level 11
[1] Building level 12
[1] Building level 13
[1] Building level 14
GPU: 50 iters: 11.1252 s: 1.96086 GB/s
PCGAMG:  Solving for pd, Initial residual = 0.00953384, Final residual = 0.00108875, No Iterations 50
time step continuity errors : sum local = 5.37866e-08, global = -2.47653e-09, cumulative = -7.66349e-08
ExecutionTime = 362.95 s  ClockTime = 392 s

Courant Number mean: 2.43999e-05 max: 0.0287171 velocity magnitude: 0.2893
Time = 0.006

MULES: Solving for alpha1
Liquid phase volume fraction = 0.00275429  Min(alpha1) = -1.53078e-30  Max(alpha1) = 1
MULES: Solving for alpha1
Liquid phase volume fraction = 0.00275429  Min(alpha1) = -6.0732e-30  Max(alpha1) = 1
[1] Building level 0
[4] Building level 0
[2] Building level 0
[5] Building level 0
[3] Building level 0
[0] Building level 0
[5] Building level 1
[3] Building level 1
[4] Building level 1
[0] Building level 1
Reconstruction on level 1
[1] Building level 1
[2] Building level 1
[3] Building level 2
[2] Building level 2
[3] Building level 3
[2] Building level 3
[3] Building level 4
[2] Building level 4
[3] Building level 5
[2] Building level 5
[5] Building level 2
[4] Building level 2
[1] Building level 2
Creating AMGLevel 
[0] Building level 2
Reconstruction on level 2
[3] Building level 6
[2] Building level 6
[3] Building level 7
[2] Building level 7
[3] Building level 8
[3] Building level 9
[2] Building level 8
[3] Building level 10
[3] Building level 11
[3] Building level 12
[3] Building level 13
[2] Building level 9
[3] Building level 14
[2] Building level 10
[2] Building level 11
[2] Building level 12
[2] Building level 13
[2] Building level 14
[5] Building level 3
[1] Building level 3
[4] Building level 3
Creating AMGLevel 
[0] Building level 3
Reconstruction on level 3
[5] Building level 4
[4] Building level 4
Creating AMGLevel 
[1] Building level 4
[0] Building level 4
Reconstruction on level 4
[5] Building level 5
[4] Building level 5
Creating AMGLevel 
[0] Building level 5
Reconstruction on level 5
[1] Building level 5
[5] Building level 6
[4] Building level 6
Creating AMGLevel 
[0] Building level 6
Reconstruction on level 6
[5] Building level 7
[1] Building level 6
[5] Building level 8
[4] Building level 7
Creating AMGLevel 
[0] Building level 7
Reconstruction on level 7
[5] Building level 9
[5] Building level 10
[4] Building level 8
Creating AMGLevel 
[5] Building level 11
[0] Building level 8
Reconstruction on level 8
[1] Building level 7
[5] Building level 12
[5] Building level 13
[5] Building level 14
Creating AMGLevel 
[4] Building level 9
[0] Building level 9
Reconstruction on level 9
Creating AMGLevel 
[0] Building level 10
Reconstruction on level 10
[4] Building level 10
Creating AMGLevel 
[0] Building level 11
Reconstruction on level 11
[4] Building level 11
Creating AMGLevel 
[0] Building level 12
Reconstruction on level 12
[4] Building level 12
[1] Building level 8
Creating AMGLevel 
[0] Building level 13
Reconstruction on level 13
[4] Building level 13
Creating AMGLevel 
[0] Building level 14
Reconstruction on level 14
[4] Building level 14
Creating AMGLevel 
14 Level construction complete
[1] Building level 9
[1] Building level 10
[1] Building level 11
[1] Building level 12
[1] Building level 13
[1] Building level 14
GPU: 34 iters: 7.14603 s: 2.07587 GB/s
PCGAMG:  Solving for pd, Initial residual = 0.0133913, Final residual = 0.000626447, No Iterations 34
[3] Building level 0
[5] Building level 0
[4] Building level 0
[1] Building level 0
[2] Building level 0
[0] Building level 0
[5] Building level 1
[3] Building level 1
[2] Building level 1
[4] Building level 1
[1] Building level 1
[0] Building level 1
[3] Building level 2
[4] Building level 2
[5] Building level 2
[2] Building level 2
[1] Building level 2
[0] Building level 2
[3] Building level 3
[4] Building level 3
[1] Building level 3
[2] Building level 3
[5] Building level 3
[0] Building level 3
[1] Building level 4
[3] Building level 4
[2] Building level 4
[5] Building level 4
[4] Building level 4
[0] Building level 4
[1] Building level 5
[3] Building level 5
[2] Building level 5
[5] Building level 5
[4] Building level 5
[0] Building level 5
[1] Building level 6
[2] Building level 6
[3] Building level 6
[5] Building level 6
[4] Building level 6
[2] Building level 7
[1] Building level 7
[3] Building level 7
[2] Building level 8
[1] Building level 8
[3] Building level 8
[5] Building level 7
[0] Building level 6
[1] Building level 9
[2] Building level 9
[3] Building level 9
[4] Building level 7
[1] Building level 10
[3] Building level 10
[2] Building level 10
[2] Building level 11
[3] Building level 11
[1] Building level 11
[5] Building level 8
[1] Building level 12
[3] Building level 12
[2] Building level 12
[1] Building level 13
[3] Building level 13
[3] Building level 14
[1] Building level 14
[2] Building level 13
[2] Building level 14
[5] Building level 9
[4] Building level 8
[5] Building level 10
[5] Building level 11
[5] Building level 12
[5] Building level 13
[5] Building level 14
[4] Building level 9
[0] Building level 7
[4] Building level 10
[4] Building level 11
[4] Building level 12
[4] Building level 13
[4] Building level 14
[0] Building level 8
[0] Building level 9
[0] Building level 10
[0] Building level 11
[0] Building level 12
[0] Building level 13
[0] Building level 14
14 Level construction complete
GPU: 28 iters: 5.89605 s: 2.07197 GB/s
PCGAMG:  Solving for pd, Initial residual = 0.00639758, Final residual = 0.000279157, No Iterations 28
[4] Building level 0
[3] Building level 0
[5] Building level 0
[2] Building level 0
[1] Building level 0
[0] Building level 0
[5] Building level 1
[3] Building level 1
[2] Building level 1
[4] Building level 1
[0] Building level 1
[1] Building level 1
[3] Building level 2
[4] Building level 2
[2] Building level 2
[1] Building level 2
[5] Building level 2
[0] Building level 2
[3] Building level 3
[2] Building level 3
[4] Building level 3
[1] Building level 3
[5] Building level 3
[0] Building level 3
[3] Building level 4
[2] Building level 4
[1] Building level 4
[4] Building level 4
[5] Building level 4
[0] Building level 4
[3] Building level 5
[2] Building level 5
[1] Building level 5
[4] Building level 5
[5] Building level 5
[3] Building level 6
[2] Building level 6
[0] Building level 5
[3] Building level 7
[1] Building level 6
[4] Building level 6
[2] Building level 7
[3] Building level 8
[3] Building level 9
[5] Building level 6
[2] Building level 8
[3] Building level 10
[3] Building level 11
[3] Building level 12
[3] Building level 13
[3] Building level 14
[1] Building level 7
[2] Building level 9
[2] Building level 10
[4] Building level 7
[2] Building level 11
[2] Building level 12
[2] Building level 13
[2] Building level 14
[0] Building level 6
[1] Building level 8
[5] Building level 7
[4] Building level 8
[1] Building level 9
[4] Building level 9
[1] Building level 10
[5] Building level 8
[1] Building level 11
[4] Building level 10
[1] Building level 12
[1] Building level 13
[1] Building level 14
[4] Building level 11
[4] Building level 12
[4] Building level 13
[4] Building level 14
[5] Building level 9
[0] Building level 7
[5] Building level 10
[5] Building level 11
[5] Building level 12
[5] Building level 13
[5] Building level 14
[0] Building level 8
[0] Building level 9
[0] Building level 10
[0] Building level 11
[0] Building level 12
[0] Building level 13
[0] Building level 14
14 Level construction complete
GPU: 50 iters: 10.3631 s: 2.10508 GB/s
PCGAMG:  Solving for pd, Initial residual = 0.00625345, Final residual = 0.000510957, No Iterations 50
time step continuity errors : sum local = 2.40713e-08, global = 1.63794e-11, cumulative = -7.66185e-08
ExecutionTime = 421.17 s  ClockTime = 453 s

Courant Number mean: 2.93281e-05 max: 0.0323934 velocity magnitude: 0.253074
Time = 0.007

MULES: Solving for alpha1
Liquid phase volume fraction = 0.00275429  Min(alpha1) = -4.76788e-30  Max(alpha1) = 1
MULES: Solving for alpha1
Liquid phase volume fraction = 0.00275429  Min(alpha1) = -2.87974e-30  Max(alpha1) = 1
[5] Building level 0
[4] Building level 0
[2] Building level 0
[1] Building level 0
[3] Building level 0
[0] Building level 0
[5] Building level 1
[3] Building level 1
[4] Building level 1
[0] Building level 1
Reconstruction on level 1
[1] Building level 1
[2] Building level 1
[3] Building level 2
[4] Building level 2
[2] Building level 2
[3] Building level 3
[2] Building level 3
[3] Building level 4
[4] Building level 3
[2] Building level 4
[3] Building level 5
[2] Building level 5
[5] Building level 2
Creating AMGLevel 
[1] Building level 2
[0] Building level 2
Reconstruction on level 2
[4] Building level 4
[3] Building level 6
[2] Building level 6
[3] Building level 7
[2] Building level 7
[3] Building level 8
[3] Building level 9
[2] Building level 8
[3] Building level 10
[3] Building level 11
[4] Building level 5
[3] Building level 12
[3] Building level 13
[3] Building level 14
[2] Building level 9
[2] Building level 10
[2] Building level 11
[2] Building level 12
[2] Building level 13
[2] Building level 14
[5] Building level 3
[1] Building level 3
[4] Building level 6
Creating AMGLevel 
[0] Building level 3
Reconstruction on level 3
[4] Building level 7
[4] Building level 8
[4] Building level 9
[4] Building level 10
[4] Building level 11
[4] Building level 12
[4] Building level 13
[4] Building level 14
[5] Building level 4
Creating AMGLevel 
[0] Building level 4
Reconstruction on level 4
[1] Building level 4
[5] Building level 5
Creating AMGLevel 
[0] Building level 5
Reconstruction on level 5
[1] Building level 5
[5] Building level 6
[5] Building level 7
Creating AMGLevel 
[0] Building level 6
Reconstruction on level 6
[1] Building level 6
[5] Building level 8
[5] Building level 9
[5] Building level 10
[5] Building level 11
Creating AMGLevel 
[1] Building level 7
[0] Building level 7
Reconstruction on level 7
[5] Building level 12
[5] Building level 13
[5] Building level 14
Creating AMGLevel 
[0] Building level 8
Reconstruction on level 8
[1] Building level 8
Creating AMGLevel 
[0] Building level 9
Reconstruction on level 9
[1] Building level 9
Creating AMGLevel 
[0] Building level 10
Reconstruction on level 10
[1] Building level 10
Creating AMGLevel 
[0] Building level 11
Reconstruction on level 11
[1] Building level 11
Creating AMGLevel 
[0] Building level 12
Reconstruction on level 12
[1] Building level 12
Creating AMGLevel 
[0] Building level 13
Reconstruction on level 13
[1] Building level 13
Creating AMGLevel 
[0] Building level 14
Reconstruction on level 14
[1] Building level 14
Creating AMGLevel 
14 Level construction complete
GPU: 35 iters: 7.89708 s: 1.93369 GB/s
PCGAMG:  Solving for pd, Initial residual = 0.0132342, Final residual = 0.00055575, No Iterations 35
[1] Building level 0
[5] Building level 0
[4] Building level 0
[2] Building level 0
[0] Building level 0
[3] Building level 0
[5] Building level 1
[3] Building level 1
[4] Building level 1
[2] Building level 1
[1] Building level 1
[0] Building level 1
[3] Building level 2
[5] Building level 2
[4] Building level 2
[2] Building level 2
[0] Building level 2
[1] Building level 2
[3] Building level 3
[0] Building level 3
[4] Building level 3
[2] Building level 3
[5] Building level 3
[1] Building level 3
[3] Building level 4
[0] Building level 4
[4] Building level 4
[5] Building level 4
[2] Building level 4
[1] Building level 4
[3] Building level 5
[0] Building level 5
[2] Building level 5
[5] Building level 5
[4] Building level 5
[1] Building level 5
[3] Building level 6
[0] Building level 6
[4] Building level 6
[5] Building level 6
[2] Building level 6
[0] Building level 7
[3] Building level 7
[1] Building level 6
[0] Building level 8
[3] Building level 8
[4] Building level 7
[0] Building level 9
[2] Building level 7
[5] Building level 7
[3] Building level 9
[0] Building level 10
[3] Building level 10
[0] Building level 11
[3] Building level 11
[0] Building level 12
[0] Building level 13
[3] Building level 12
[4] Building level 8
[0] Building level 14
[3] Building level 13
14 Level construction complete
[3] Building level 14
[2] Building level 8
[5] Building level 8
[1] Building level 7
[4] Building level 9
[4] Building level 10
[2] Building level 9
[5] Building level 9
[4] Building level 11
[4] Building level 12
[4] Building level 13
[4] Building level 14
[2] Building level 10
[5] Building level 10
[2] Building level 11
[5] Building level 11
[5] Building level 12
[2] Building level 12
[5] Building level 13
[2] Building level 13
[5] Building level 14
[1] Building level 8
[2] Building level 14
[1] Building level 9
[1] Building level 10
[1] Building level 11
[1] Building level 12
[1] Building level 13
[1] Building level 14
GPU: 42 iters: 9.43038 s: 1.94315 GB/s
PCGAMG:  Solving for pd, Initial residual = 0.00572463, Final residual = 0.000256432, No Iterations 42
[5] Building level 0
[2] Building level 0
[1] Building level 0
[0] Building level 0
[4] Building level 0
[3] Building level 0
[5] Building level 1
[3] Building level 1
[0] Building level 1
[2] Building level 1
[1] Building level 1
[4] Building level 1
[3] Building level 2
[0] Building level 2
[4] Building level 2
[2] Building level 2
[5] Building level 2
[1] Building level 2
[3] Building level 3
[0] Building level 3
[2] Building level 3
[4] Building level 3
[5] Building level 3
[1] Building level 3
[3] Building level 4
[0] Building level 4
[2] Building level 4
[4] Building level 4
[5] Building level 4
[1] Building level 4
[3] Building level 5
[0] Building level 5
[2] Building level 5
[4] Building level 5
[3] Building level 6
[5] Building level 5
[0] Building level 6
[3] Building level 7
[1] Building level 5
[4] Building level 6
[2] Building level 6
[3] Building level 8
[3] Building level 9
[0] Building level 7
[3] Building level 10
[3] Building level 11
[3] Building level 12
[3] Building level 13
[3] Building level 14
[5] Building level 6
[0] Building level 8
[4] Building level 7
[2] Building level 7
[0] Building level 9
[0] Building level 10
[0] Building level 11
[4] Building level 8
[2] Building level 8
[0] Building level 12
[0] Building level 13
[0] Building level 14
14 Level construction complete
[1] Building level 6
[5] Building level 7
[4] Building level 9
[2] Building level 9
[4] Building level 10
[2] Building level 10
[4] Building level 11
[2] Building level 11
[4] Building level 12
[4] Building level 13
[4] Building level 14
[2] Building level 12
[2] Building level 13
[2] Building level 14
[5] Building level 8
[5] Building level 9
[5] Building level 10
[5] Building level 11
[1] Building level 7
[5] Building level 12
[5] Building level 13
[5] Building level 14
[1] Building level 8
[1] Building level 9
[1] Building level 10
[1] Building level 11
[1] Building level 12
[1] Building level 13
[1] Building level 14
GPU: 42 iters: 9.43771 s: 1.94164 GB/s
PCGAMG:  Solving for pd, Initial residual = 0.00543729, Final residual = 9.54983e-08, No Iterations 42
time step continuity errors : sum local = 1.46871e-10, global = 1.42404e-10, cumulative = -7.64761e-08
ExecutionTime = 482.3 s  ClockTime = 516 s

Courant Number mean: 3.43928e-05 max: 0.0092785 velocity magnitude: 0.130404
Time = 0.008

MULES: Solving for alpha1
Liquid phase volume fraction = 0.00275429  Min(alpha1) = -1.10704e-29  Max(alpha1) = 1
MULES: Solving for alpha1
Liquid phase volume fraction = 0.00275429  Min(alpha1) = -7.63381e-30  Max(alpha1) = 1
[4] Building level 0
[2] Building level 0
[0] Building level 0
[5] Building level 0
[3] Building level 0
[1] Building level 0
[5] Building level 1
[3] Building level 1
[4] Building level 1
[2] Building level 1
[0] Building level 1
Reconstruction on level 1
[1] Building level 1
[3] Building level 2
[4] Building level 2
[2] Building level 2
[3] Building level 3
[2] Building level 3
[3] Building level 4
[2] Building level 4
[4] Building level 3
[3] Building level 5
[2] Building level 5
[5] Building level 2
Creating AMGLevel 
[0] Building level 2
Reconstruction on level 2
[1] Building level 2
[3] Building level 6
[4] Building level 4
[2] Building level 6
[3] Building level 7
[2] Building level 7
[3] Building level 8
[3] Building level 9
[2] Building level 8
[3] Building level 10
[3] Building level 11
[3] Building level 12
[3] Building level 13
[2] Building level 9
[3] Building level 14
[4] Building level 5
[2] Building level 10
[2] Building level 11
[2] Building level 12
[2] Building level 13
[2] Building level 14
[5] Building level 3
[1] Building level 3
Creating AMGLevel 
[0] Building level 3
Reconstruction on level 3
[4] Building level 6
[4] Building level 7
[4] Building level 8
[4] Building level 9
[4] Building level 10
[4] Building level 11
[4] Building level 12
[4] Building level 13
[4] Building level 14
[5] Building level 4
Creating AMGLevel 
[0] Building level 4
Reconstruction on level 4
[1] Building level 4
[5] Building level 5
Creating AMGLevel 
[0] Building level 5
Reconstruction on level 5
[1] Building level 5
[5] Building level 6
Creating AMGLevel 
[0] Building level 6
Reconstruction on level 6
[5] Building level 7
[1] Building level 6
[5] Building level 8
[5] Building level 9
Creating AMGLevel 
[0] Building level 7
Reconstruction on level 7
[5] Building level 10
[5] Building level 11
[5] Building level 12
[1] Building level 7
[5] Building level 13
[5] Building level 14
Creating AMGLevel 
[0] Building level 8
Reconstruction on level 8
[1] Building level 8
Creating AMGLevel 
[0] Building level 9
Reconstruction on level 9
Creating AMGLevel 
[0] Building level 10
Reconstruction on level 10
[1] Building level 9
Creating AMGLevel 
[0] Building level 11
Reconstruction on level 11
Creating AMGLevel 
[0] Building level 12
Reconstruction on level 12
Creating AMGLevel 
[0] Building level 13
Reconstruction on level 13
[1] Building level 10
Creating AMGLevel 
[0] Building level 14
Reconstruction on level 14
Creating AMGLevel 
14 Level construction complete
[1] Building level 11
[1] Building level 12
[1] Building level 13
[1] Building level 14
GPU: 37 iters: 8.15124 s: 1.98045 GB/s
PCGAMG:  Solving for pd, Initial residual = 0.0137206, Final residual = 0.000651475, No Iterations 37
[5] Building level 0
[1] Building level 0
[0] Building level 0
[4] Building level 0
[2] Building level 0
[3] Building level 0
[5] Building level 1
[3] Building level 1
[4] Building level 1
[2] Building level 1
[1] Building level 1
[0] Building level 1
[3] Building level 2
[4] Building level 2
[5] Building level 2
[0] Building level 2
[2] Building level 2
[1] Building level 2
[3] Building level 3
[0] Building level 3
[4] Building level 3
[5] Building level 3
[2] Building level 3
[1] Building level 3
[0] Building level 4
[3] Building level 4
[4] Building level 4
[2] Building level 4
[5] Building level 4
[1] Building level 4
[0] Building level 5
[3] Building level 5
[4] Building level 5
[2] Building level 5
[5] Building level 5
[0] Building level 6
[3] Building level 6
[1] Building level 5
[4] Building level 6
[0] Building level 7
[3] Building level 7
[2] Building level 6
[5] Building level 6
[0] Building level 8
[3] Building level 8
[4] Building level 7
[0] Building level 9
[3] Building level 9
[0] Building level 10
[3] Building level 10
[1] Building level 6
[0] Building level 11
[3] Building level 11
[0] Building level 12
[3] Building level 12
[0] Building level 13
[3] Building level 13
[0] Building level 14
[3] Building level 14
[4] Building level 8
14 Level construction complete
[2] Building level 7
[5] Building level 7
[4] Building level 9
[4] Building level 10
[4] Building level 11
[4] Building level 12
[4] Building level 13
[4] Building level 14
[2] Building level 8
[5] Building level 8
[2] Building level 9
[1] Building level 7
[5] Building level 9
[2] Building level 10
[2] Building level 11
[5] Building level 10
[2] Building level 12
[2] Building level 13
[2] Building level 14
[5] Building level 11
[5] Building level 12
[5] Building level 13
[5] Building level 14
[1] Building level 8
[1] Building level 9
[1] Building level 10
[1] Building level 11
[1] Building level 12
[1] Building level 13
[1] Building level 14
GPU: 6 iters: 1.50011 s: 1.74508 GB/s
PCGAMG:  Solving for pd, Initial residual = 0.00570686, Final residual = 0.000225386, No Iterations 6
[2] Building level 0
[4] Building level 0
[3] Building level 0
[0] Building level 0
[5] Building level 0
[1] Building level 0
[5] Building level 1
[3] Building level 1
[0] Building level 1
[1] Building level 1
[2] Building level 1
[4] Building level 1
[3] Building level 2
[5] Building level 2
[4] Building level 2
[0] Building level 2
[2] Building level 2
[1] Building level 2
[3] Building level 3
[0] Building level 3
[5] Building level 3
[4] Building level 3
[2] Building level 3
[1] Building level 3
[3] Building level 4
[0] Building level 4
[2] Building level 4
[4] Building level 4
[5] Building level 4
[1] Building level 4
[3] Building level 5
[0] Building level 5
[2] Building level 5
[4] Building level 5
[5] Building level 5
[3] Building level 6
[0] Building level 6
[2] Building level 6
[1] Building level 5
[4] Building level 6
[3] Building level 7
[0] Building level 7
[5] Building level 6
[3] Building level 8
[0] Building level 8
[2] Building level 7
[3] Building level 9
[3] Building level 10
[4] Building level 7
[0] Building level 9
[3] Building level 11
[3] Building level 12
[3] Building level 13
[3] Building level 14
[0] Building level 10
[0] Building level 11
[2] Building level 8
[0] Building level 12
[5] Building level 7
[0] Building level 13
[0] Building level 14
14 Level construction complete
[4] Building level 8
[2] Building level 9
[1] Building level 6
[2] Building level 10
[5] Building level 8
[2] Building level 11
[4] Building level 9
[2] Building level 12
[2] Building level 13
[2] Building level 14
[4] Building level 10
[4] Building level 11
[4] Building level 12
[5] Building level 9
[4] Building level 13
[4] Building level 14
[5] Building level 10
[5] Building level 11
[5] Building level 12
[5] Building level 13
[5] Building level 14
[1] Building level 7
[1] Building level 8
[1] Building level 9
[1] Building level 10
[1] Building level 11
[1] Building level 12
[1] Building level 13
[1] Building level 14
GPU: 50 iters: 10.8963 s: 2.00206 GB/s
PCGAMG:  Solving for pd, Initial residual = 0.00557597, Final residual = 2.94421e-07, No Iterations 50
time step continuity errors : sum local = 1.69786e-10, global = 1.56052e-10, cumulative = -7.632e-08
ExecutionTime = 538.05 s  ClockTime = 574 s

Courant Number mean: 3.95003e-05 max: 0.00903895 velocity magnitude: 0.140318
Time = 0.009

MULES: Solving for alpha1
Liquid phase volume fraction = 0.00275429  Min(alpha1) = -1.46322e-29  Max(alpha1) = 1
MULES: Solving for alpha1
Liquid phase volume fraction = 0.00275429  Min(alpha1) = -2.86128e-29  Max(alpha1) = 1
[2] Building level 0
[3] Building level 0
[5] Building level 0
[0] Building level 0
[1] Building level 0
[4] Building level 0
[5] Building level 1
[3] Building level 1
[4] Building level 1
[2] Building level 1
[0] Building level 1
[1] Building level 1
Reconstruction on level 1
[3] Building level 2
[2] Building level 2
[2] Building level 3
[3] Building level 3
[3] Building level 4
[2] Building level 4
[3] Building level 5
[2] Building level 5
[4] Building level 2
[5] Building level 2
Creating AMGLevel 
[1] Building level 2
[0] Building level 2
Reconstruction on level 2
[3] Building level 6
[2] Building level 6
[3] Building level 7
[2] Building level 7
[3] Building level 8
[2] Building level 8
[3] Building level 9
[3] Building level 10
[2] Building level 9
[3] Building level 11
[3] Building level 12
[3] Building level 13
[3] Building level 14
[2] Building level 10
[2] Building level 11
[2] Building level 12
[2] Building level 13
[2] Building level 14
[5] Building level 3
[4] Building level 3
Creating AMGLevel 
[0] Building level 3
Reconstruction on level 3
[1] Building level 3
[5] Building level 4
[4] Building level 4
Creating AMGLevel 
[0] Building level 4
Reconstruction on level 4
[1] Building level 4
[5] Building level 5
[4] Building level 5
Creating AMGLevel 
[0] Building level 5
Reconstruction on level 5
[1] Building level 5
[5] Building level 6
[4] Building level 6
Creating AMGLevel 
[0] Building level 6
Reconstruction on level 6
[5] Building level 7
[4] Building level 7
[5] Building level 8
Creating AMGLevel 
[0] Building level 7
Reconstruction on level 7
[5] Building level 9
[1] Building level 6
[4] Building level 8
[5] Building level 10
Creating AMGLevel 
[0] Building level 8
Reconstruction on level 8
[5] Building level 11
[5] Building level 12
[5] Building level 13
[4] Building level 9
[5] Building level 14
Creating AMGLevel 
[0] Building level 9
Reconstruction on level 9
[4] Building level 10
Creating AMGLevel 
[0] Building level 10
Reconstruction on level 10
[4] Building level 11
[4] Building level 12
Creating AMGLevel 
[0] Building level 11
Reconstruction on level 11
[4] Building level 13
Creating AMGLevel 
[0] Building level 12
Reconstruction on level 12
[4] Building level 14
Creating AMGLevel 
[0] Building level 13
Reconstruction on level 13
Creating AMGLevel 
[0] Building level 14
Reconstruction on level 14
[1] Building level 7
Creating AMGLevel 
14 Level construction complete
[1] Building level 8
[1] Building level 9
[1] Building level 10
[1] Building level 11
[1] Building level 12
[1] Building level 13
[1] Building level 14
GPU: 28 iters: 6.2608 s: 1.95126 GB/s
PCGAMG:  Solving for pd, Initial residual = 0.0136293, Final residual = 0.000585468, No Iterations 28
[1] Building level 0
[4] Building level 0
[2] Building level 0
[3] Building level 0
[5] Building level 0
[0] Building level 0
[5] Building level 1
[3] Building level 1
[4] Building level 1
[2] Building level 1
[0] Building level 1
[1] Building level 1
[3] Building level 2
[0] Building level 2
[2] Building level 2
[5] Building level 2
[4] Building level 2
[1] Building level 2
[3] Building level 3
[0] Building level 3
[2] Building level 3
[4] Building level 3
[5] Building level 3
[1] Building level 3
[3] Building level 4
[0] Building level 4
[2] Building level 4
[4] Building level 4
[5] Building level 4
[1] Building level 4
[3] Building level 5
[0] Building level 5
[2] Building level 5
[3] Building level 6
[4] Building level 5
[5] Building level 5
[1] Building level 5
[0] Building level 6
[2] Building level 6
[3] Building level 7
[3] Building level 8
[0] Building level 7
[3] Building level 9
[2] Building level 7
[3] Building level 10
[3] Building level 11
[3] Building level 12
[5] Building level 6
[3] Building level 13
[4] Building level 6
[3] Building level 14
[0] Building level 8
[1] Building level 6
[2] Building level 8
[0] Building level 9
[0] Building level 10
[0] Building level 11
[2] Building level 9
[0] Building level 12
[0] Building level 13
[0] Building level 14
14 Level construction complete
[2] Building level 10
[2] Building level 11
[2] Building level 12
[2] Building level 13
[4] Building level 7
[2] Building level 14
[5] Building level 7
[1] Building level 7
[4] Building level 8
[5] Building level 8
[4] Building level 9
[5] Building level 9
[4] Building level 10
[5] Building level 10
[1] Building level 8
[4] Building level 11
[5] Building level 11
[4] Building level 12
[5] Building level 12
[4] Building level 13
[5] Building level 13
[4] Building level 14
[5] Building level 14
[1] Building level 9
[1] Building level 10
[1] Building level 11
[1] Building level 12
[1] Building level 13
[1] Building level 14
GPU: 19 iters: 4.27889 s: 1.93735 GB/s
PCGAMG:  Solving for pd, Initial residual = 0.00595627, Final residual = 0.000296201, No Iterations 19
[1] Building level 0
[2] Building level 0
[0] Building level 0
[4] Building level 0
[5] Building level 0
[3] Building level 0
[5] Building level 1
[3] Building level 1
[0] Building level 1
[1] Building level 1
[4] Building level 1
[2] Building level 1
[3] Building level 2
[5] Building level 2
[0] Building level 2
[2] Building level 2
[4] Building level 2
[1] Building level 2
[3] Building level 3
[0] Building level 3
[2] Building level 3
[5] Building level 3
[4] Building level 3
[1] Building level 3
[3] Building level 4
[2] Building level 4
[0] Building level 4
[5] Building level 4
[4] Building level 4
[1] Building level 4
[3] Building level 5
[2] Building level 5
[0] Building level 5
[5] Building level 5
[3] Building level 6
[4] Building level 5
[2] Building level 6
[0] Building level 6
[3] Building level 7
[1] Building level 5
[2] Building level 7
[3] Building level 8
[5] Building level 6
[0] Building level 7
[3] Building level 9
[3] Building level 10
[3] Building level 11
[2] Building level 8
[3] Building level 12
[3] Building level 13
[3] Building level 14
[4] Building level 6
[0] Building level 8
[2] Building level 9
[0] Building level 9
[2] Building level 10
[2] Building level 11
[2] Building level 12
[0] Building level 10
[2] Building level 13
[5] Building level 7
[2] Building level 14
[0] Building level 11
[0] Building level 12
[0] Building level 13
[0] Building level 14
14 Level construction complete
[4] Building level 7
[5] Building level 8
[1] Building level 6
[5] Building level 9
[5] Building level 10
[4] Building level 8
[5] Building level 11
[5] Building level 12
[5] Building level 13
[5] Building level 14
[4] Building level 9
[4] Building level 10
[4] Building level 11
[4] Building level 12
[4] Building level 13
[4] Building level 14
[1] Building level 7
[1] Building level 8
[1] Building level 9
[1] Building level 10
[1] Building level 11
[1] Building level 12
[1] Building level 13
[1] Building level 14
GPU: 50 iters: 10.9697 s: 1.98867 GB/s
PCGAMG:  Solving for pd, Initial residual = 0.00565011, Final residual = 1.66578e-07, No Iterations 50
time step continuity errors : sum local = 1.02772e-11, global = 2.52168e-12, cumulative = -7.63175e-08
ExecutionTime = 594.92 s  ClockTime = 634 s

Courant Number mean: 4.4617e-05 max: 0.00971969 velocity magnitude: 0.149325
Time = 0.01

MULES: Solving for alpha1
Liquid phase volume fraction = 0.00275429  Min(alpha1) = -2.70982e-29  Max(alpha1) = 1
MULES: Solving for alpha1
Liquid phase volume fraction = 0.00275429  Min(alpha1) = -5.16462e-29  Max(alpha1) = 1
[2] Building level 0
[0] Building level 0
[5] Building level 0
[3] Building level 0
[4] Building level 0
[1] Building level 0
[5] Building level 1
[3] Building level 1
[4] Building level 1
[2] Building level 1
[0] Building level 1
Reconstruction on level 1
[1] Building level 1
[3] Building level 2
[2] Building level 2
[2] Building level 3
[3] Building level 3
[3] Building level 4
[2] Building level 4
[3] Building level 5
[2] Building level 5
[4] Building level 2
[5] Building level 2
[1] Building level 2
Creating AMGLevel 
[0] Building level 2
Reconstruction on level 2
[3] Building level 6
[2] Building level 6
[3] Building level 7
[2] Building level 7
[3] Building level 8
[3] Building level 9
[2] Building level 8
[3] Building level 10
[3] Building level 11
[3] Building level 12
[3] Building level 13
[2] Building level 9
[3] Building level 14
[2] Building level 10
[2] Building level 11
[2] Building level 12
[2] Building level 13
[4] Building level 3
[2] Building level 14
[5] Building level 3
[1] Building level 3
Creating AMGLevel 
[0] Building level 3
Reconstruction on level 3
[4] Building level 4
[5] Building level 4
Creating AMGLevel 
[0] Building level 4
Reconstruction on level 4
[1] Building level 4
[4] Building level 5
[5] Building level 5
Creating AMGLevel 
[0] Building level 5
Reconstruction on level 5
[1] Building level 5
[4] Building level 6
[5] Building level 6
Creating AMGLevel 
[0] Building level 6
Reconstruction on level 6
[5] Building level 7
[4] Building level 7
[5] Building level 8
[4] Building level 8
[1] Building level 6
Creating AMGLevel 
[0] Building level 7
Reconstruction on level 7
[5] Building level 9
[4] Building level 9
[5] Building level 10
[4] Building level 10
[5] Building level 11
[5] Building level 12
Creating AMGLevel 
[4] Building level 11
[0] Building level 8
Reconstruction on level 8
[5] Building level 13
[5] Building level 14
[4] Building level 12
[4] Building level 13
[4] Building level 14
Creating AMGLevel 
[0] Building level 9
Reconstruction on level 9
[1] Building level 7
Creating AMGLevel 
[0] Building level 10
Reconstruction on level 10
Creating AMGLevel 
[0] Building level 11
Reconstruction on level 11
Creating AMGLevel 
[0] Building level 12
Reconstruction on level 12
Creating AMGLevel 
[0] Building level 13
Reconstruction on level 13
Creating AMGLevel 
[0] Building level 14
Reconstruction on level 14
Creating AMGLevel 
14 Level construction complete
[1] Building level 8
[1] Building level 9
[1] Building level 10
[1] Building level 11
[1] Building level 12
[1] Building level 13
[1] Building level 14
GPU: 50 iters: 11.1936 s: 1.94889 GB/s
PCGAMG:  Solving for pd, Initial residual = 0.0142235, Final residual = 0.00661968, No Iterations 50
[3] Building level 0
[0] Building level 0
[4] Building level 0
[1] Building level 0
[5] Building level 0
[2] Building level 0
[5] Building level 1
[3] Building level 1
[4] Building level 1
[2] Building level 1
[0] Building level 1
[1] Building level 1
[3] Building level 2
[4] Building level 2
[5] Building level 2
[2] Building level 2
[0] Building level 2
[1] Building level 2
[3] Building level 3
[0] Building level 3
[2] Building level 3
[4] Building level 3
[5] Building level 3
[1] Building level 3
[0] Building level 4
[2] Building level 4
[3] Building level 4
[4] Building level 4
[5] Building level 4
[1] Building level 4
[3] Building level 5
[0] Building level 5
[2] Building level 5
[4] Building level 5
[5] Building level 5
[3] Building level 6
[1] Building level 5
[0] Building level 6
[2] Building level 6
[3] Building level 7
[0] Building level 7
[4] Building level 6
[3] Building level 8
[2] Building level 7
[5] Building level 6
[3] Building level 9
[0] Building level 8
[3] Building level 10
[3] Building level 11
[3] Building level 12
[3] Building level 13
[3] Building level 14
[2] Building level 8
[0] Building level 9
[1] Building level 6
[0] Building level 10
[4] Building level 7
[0] Building level 11
[2] Building level 9
[0] Building level 12
[0] Building level 13
[0] Building level 14
14 Level construction complete
[2] Building level 10
[2] Building level 11
[5] Building level 7
[2] Building level 12
[2] Building level 13
[2] Building level 14
[4] Building level 8
[5] Building level 8
[4] Building level 9
[4] Building level 10
[1] Building level 7
[4] Building level 11
[5] Building level 9
[4] Building level 12
[4] Building level 13
[4] Building level 14
[5] Building level 10
[5] Building level 11
[5] Building level 12
[5] Building level 13
[5] Building level 14
[1] Building level 8
[1] Building level 9
[1] Building level 10
[1] Building level 11
[1] Building level 12
[1] Building level 13
[1] Building level 14
GPU: 10 iters: 2.40277 s: 1.81583 GB/s
PCGAMG:  Solving for pd, Initial residual = 0.0124182, Final residual = 0.000461793, No Iterations 10
[5] Building level 0
[1] Building level 0
[2] Building level 0
[3] Building level 0
[0] Building level 0
[4] Building level 0
[5] Building level 1
[3] Building level 1
[1] Building level 1
[4] Building level 1
[0] Building level 1
[2] Building level 1
[3] Building level 2
[5] Building level 2
[0] Building level 2
[4] Building level 2
[2] Building level 2
[1] Building level 2
[3] Building level 3
[0] Building level 3
[2] Building level 3
[5] Building level 3
[4] Building level 3
[1] Building level 3
[2] Building level 4
[0] Building level 4
[3] Building level 4
[5] Building level 4
[4] Building level 4
[1] Building level 4
[2] Building level 5
[3] Building level 5
[0] Building level 5
[5] Building level 5
[4] Building level 5
[2] Building level 6
[3] Building level 6
[1] Building level 5
[0] Building level 6
[2] Building level 7
[3] Building level 7
[0] Building level 7
[5] Building level 6
[2] Building level 8
[3] Building level 8
[4] Building level 6
[2] Building level 9
[3] Building level 9
[0] Building level 8
[2] Building level 10
[3] Building level 10
[2] Building level 11
[2] Building level 12
[3] Building level 11
[2] Building level 13
[1] Building level 6
[2] Building level 14
[3] Building level 12
[3] Building level 13
[3] Building level 14
[0] Building level 9
[5] Building level 7
[0] Building level 10
[0] Building level 11
[0] Building level 12
[0] Building level 13
[0] Building level 14
14 Level construction complete
[4] Building level 7
[5] Building level 8
[5] Building level 9
[4] Building level 8
[1] Building level 7
[5] Building level 10
[5] Building level 11
[5] Building level 12
[5] Building level 13
[5] Building level 14
[4] Building level 9
[4] Building level 10
[4] Building level 11
[4] Building level 12
[4] Building level 13
[4] Building level 14
[1] Building level 8
[1] Building level 9
[1] Building level 10
[1] Building level 11
[1] Building level 12
[1] Building level 13
[1] Building level 14
GPU: 50 iters: 11.1929 s: 1.94901 GB/s
PCGAMG:  Solving for pd, Initial residual = 0.00649031, Final residual = 3.02747e-06, No Iterations 50
time step continuity errors : sum local = 1.82377e-10, global = -4.22421e-11, cumulative = -7.63597e-08
ExecutionTime = 654.98 s  ClockTime = 696 s

End

Finalising parallel run
