 Data for JOB [47962,1] offset 0

 ========================   JOB MAP   ========================

 Data for node: ivb106	Num slots: 2	Max slots: 0	Num procs: 2
 	Process OMPI jobid: [47962,1] App: 0 Process rank: 0
 	Process OMPI jobid: [47962,1] App: 0 Process rank: 1

 Data for node: ivb108	Num slots: 2	Max slots: 0	Num procs: 2
 	Process OMPI jobid: [47962,1] App: 0 Process rank: 2
 	Process OMPI jobid: [47962,1] App: 0 Process rank: 3

 =============================================================
[ivb106:12488] MCW rank 0 bound to socket 0[core 0[hwt 0]]: [B/././././././././.][./././././././././.]
[ivb106:12488] MCW rank 1 bound to socket 0[core 1[hwt 0]]: [./B/./././././././.][./././././././././.]
[ivb108:35872] MCW rank 3 bound to socket 0[core 1[hwt 0]]: [./B/./././././././.][./././././././././.]
[ivb108:35872] MCW rank 2 bound to socket 0[core 0[hwt 0]]: [B/././././././././.][./././././././././.]
0
1
0
1
/*---------------------------------------------------------------------------*\
| =========                 |                                                 |
| \\      /  F ield         | foam-extend: Open Source CFD                    |
|  \\    /   O peration     | Version:     3.1                                |
|   \\  /    A nd           | Web:         http://www.extend-project.de       |
|    \\/     M anipulation  |                                                 |
\*---------------------------------------------------------------------------*/
Build    : 3.1-e2da948002a2
Exec     : interFoam -parallel
Date     : May 21 2016
Time     : 21:10:03
Host     : ivb106
PID      : 12517
CtrlDict : /home-2/vplatonov/foam/foam-extend-3.1/etc/controlDict
Case     : /home/vplatonov/tests/rt12mln
nProcs   : 4
Slaves : 
3
(
ivb106.12515
ivb108.35896
ivb108.35895
)

Pstream initialized with:
    floatTransfer     : 0
    nProcsSimpleSum   : 0
    commsType         : blocking
SigFpe   : Enabling floating point exception trapping (FOAM_SIGFPE).

// * * * * * * * * * * * * * * * * * * * * * * * * * * * * * * * * * * * * * //
Create time

Create mesh for time = 0


Reading g
Reading field pd

Reading field alpha1

Reading field U

Reading/calculating face flux field phi

Reading transportProperties

Selecting incompressible transport model Newtonian
Selecting incompressible transport model Newtonian
Calculating field g.h

Selecting turbulence model type laminar
time step continuity errors : sum local = 0, global = 0, cumulative = 0
Created persistent data with name pcorr
[0] Building level 0
[1] Building level 0
[3] Building level 0
[2] Building level 0
Creating AMGLevel 
[0] Building level 1
[1] Building level 1
[3] Building level 1
[2] Building level 1
Creating AMGLevel 
[0] Building level 2
[1] Building level 2
[3] Building level 2
[2] Building level 2
[1] Building level 3
Creating AMGLevel 
[0] Building level 3
[2] Building level 3
[3] Building level 3
[1] Building level 4
Creating AMGLevel 
[0] Building level 4
[3] Building level 4
[2] Building level 4
[1] Building level 5
Creating AMGLevel 
[0] Building level 5
[2] Building level 5
[3] Building level 5
[1] Building level 6
Creating AMGLevel 
[0] Building level 6
[1] Building level 7
Creating AMGLevel 
[0] Building level 7
[2] Building level 6
[1] Building level 8
[3] Building level 6
[1] Building level 9
Creating AMGLevel 
[0] Building level 8
[1] Building level 10
[1] Building level 11
[1] Building level 12
Creating AMGLevel 
[0] Building level 9
[1] Building level 13
[1] Building level 14
[2] Building level 7
Creating AMGLevel 
[0] Building level 10
[3] Building level 7
Creating AMGLevel 
[0] Building level 11
Creating AMGLevel 
[0] Building level 12
Creating AMGLevel 
[0] Building level 13
Creating AMGLevel 
[0] Building level 14
Creating AMGLevel 
14 Level construction complete
[2] Building level 8
[3] Building level 8
[2] Building level 9
[3] Building level 9
[2] Building level 10
[2] Building level 11
[3] Building level 10
[2] Building level 12
[3] Building level 11
[2] Building level 13
[2] Building level 14
[3] Building level 12
[3] Building level 13
[3] Building level 14
PCGAMG:  Solving for pcorr, Initial residual = 0, Final residual = 0, No Iterations 0
time step continuity errors : sum local = 0, global = 0, cumulative = 0
Courant Number mean: 0 max: 0 velocity magnitude: 0

Starting time loop

Courant Number mean: 0 max: 0 velocity magnitude: 0
Time = 0.001

MULES: Solving for alpha1
Liquid phase volume fraction = 0.00275421  Min(alpha1) = 0  Max(alpha1) = 1
MULES: Solving for alpha1
Liquid phase volume fraction = 0.00275421  Min(alpha1) = 0  Max(alpha1) = 1
[2] Building level 0
[3] Building level 0
Created persistent data with name pd
[0] Building level 0
[1] Building level 0
Creating AMGLevel 
[3] Building level 1
[2] Building level 1
[1] Building level 1
[0] Building level 1
[2] Building level 2
[3] Building level 2
Creating AMGLevel 
[1] Building level 2
[0] Building level 2
[2] Building level 3
[3] Building level 3
Creating AMGLevel 
[0] Building level 3
[1] Building level 3
[2] Building level 4
[3] Building level 4
Creating AMGLevel 
[0] Building level 4
[1] Building level 4
[2] Building level 5
[3] Building level 5
Creating AMGLevel 
[0] Building level 5
[1] Building level 5
[2] Building level 6
[3] Building level 6
[2] Building level 7
Creating AMGLevel 
[0] Building level 6
[1] Building level 6
[3] Building level 7
[2] Building level 8
[2] Building level 9
[3] Building level 8
[2] Building level 10
Creating AMGLevel 
[2] Building level 11
[0] Building level 7
[2] Building level 12
[1] Building level 7
[2] Building level 13
[3] Building level 9
[2] Building level 14
[3] Building level 10
[3] Building level 11
[3] Building level 12
Creating AMGLevel 
[0] Building level 8
[3] Building level 13
[1] Building level 8
[3] Building level 14
Creating AMGLevel 
[0] Building level 9
[1] Building level 9
Creating AMGLevel 
[0] Building level 10
[1] Building level 10
Creating AMGLevel 
[0] Building level 11
[1] Building level 11
Creating AMGLevel 
[0] Building level 12
[1] Building level 12
Creating AMGLevel 
[0] Building level 13
Creating AMGLevel 
[0] Building level 14
[1] Building level 13
Creating AMGLevel 
14 Level construction complete
[1] Building level 14
GPU: 1 iters: 0.379744 s: 1.72337 GB/s
PCGAMG:  Solving for pd, Initial residual = 1, Final residual = 0.0347814, No Iterations 1
[0] Building level 0
[1] Building level 0
[2] Building level 0
[3] Building level 0
[2] Building level 1
[3] Building level 1
[0] Building level 1
[1] Building level 1
[2] Building level 2
[3] Building level 2
[0] Building level 2
[1] Building level 2
[2] Building level 3
[3] Building level 3
[0] Building level 3
[1] Building level 3
[2] Building level 4
[3] Building level 4
[1] Building level 4
[0] Building level 4
[2] Building level 5
[3] Building level 5
[2] Building level 6
[1] Building level 5
[0] Building level 5
[3] Building level 6
[2] Building level 7
[2] Building level 8
[3] Building level 7
[2] Building level 9
[2] Building level 10
[2] Building level 11
[2] Building level 12
[2] Building level 13
[2] Building level 14
[1] Building level 6
[3] Building level 8
[3] Building level 9
[0] Building level 6
[3] Building level 10
[3] Building level 11
[3] Building level 12
[3] Building level 13
[3] Building level 14
[1] Building level 7
[0] Building level 7
[1] Building level 8
[1] Building level 9
[0] Building level 8
[1] Building level 10
[1] Building level 11
[1] Building level 12
[1] Building level 13
[1] Building level 14
[0] Building level 9
[0] Building level 10
[0] Building level 11
[0] Building level 12
[0] Building level 13
[0] Building level 14
14 Level construction complete
GPU: 3 iters: 0.824241 s: 2.38197 GB/s
PCGAMG:  Solving for pd, Initial residual = 0.0222781, Final residual = 0.000979518, No Iterations 3
[0] Building level 0
[1] Building level 0
[2] Building level 0
[3] Building level 0
[2] Building level 1
[3] Building level 1
[0] Building level 1
[1] Building level 1
[2] Building level 2
[3] Building level 2
[0] Building level 2
[1] Building level 2
[2] Building level 3
[3] Building level 3
[1] Building level 3
[0] Building level 3
[2] Building level 4
[3] Building level 4
[1] Building level 4
[0] Building level 4
[2] Building level 5
[3] Building level 5
[2] Building level 6
[1] Building level 5
[3] Building level 6
[0] Building level 5
[2] Building level 7
[2] Building level 8
[3] Building level 7
[2] Building level 9
[2] Building level 10
[2] Building level 11
[2] Building level 12
[2] Building level 13
[2] Building level 14
[1] Building level 6
[3] Building level 8
[3] Building level 9
[3] Building level 10
[0] Building level 6
[3] Building level 11
[3] Building level 12
[3] Building level 13
[3] Building level 14
[1] Building level 7
[1] Building level 8
[0] Building level 7
[1] Building level 9
[1] Building level 10
[1] Building level 11
[1] Building level 12
[1] Building level 13
[1] Building level 14
[0] Building level 8
[0] Building level 9
[0] Building level 10
[0] Building level 11
[0] Building level 12
[0] Building level 13
[0] Building level 14
14 Level construction complete
GPU: 17 iters: 3.68787 s: 3.01676 GB/s
PCGAMG:  Solving for pd, Initial residual = 0.00562846, Final residual = 7.57725e-08, No Iterations 17
time step continuity errors : sum local = 5.6437e-12, global = 3.18456e-25, cumulative = 3.18456e-25
ExecutionTime = 122.27 s  ClockTime = 131 s

Courant Number mean: 4.86856e-06 max: 0.00215808 velocity magnitude: 0.03372
Time = 0.002

MULES: Solving for alpha1
Liquid phase volume fraction = 0.00275421  Min(alpha1) = 0  Max(alpha1) = 1
MULES: Solving for alpha1
Liquid phase volume fraction = 0.00275421  Min(alpha1) = 0  Max(alpha1) = 1
[1] Building level 0
[0] Building level 0
[3] Building level 0
[2] Building level 0
[2] Building level 1
[3] Building level 1
[1] Building level 1
[0] Building level 1
Reconstruction on level 1
[2] Building level 2
Creating AMGLevel 
[1] Building level 2
[3] Building level 2
[0] Building level 2
Reconstruction on level 2
[2] Building level 3
[3] Building level 3
[1] Building level 3
Creating AMGLevel 
[0] Building level 3
Reconstruction on level 3
[2] Building level 4
[1] Building level 4
Creating AMGLevel 
[0] Building level 4
Reconstruction on level 4
[3] Building level 4
[1] Building level 5
[2] Building level 5
Creating AMGLevel 
[0] Building level 5
Reconstruction on level 5
[3] Building level 5
[1] Building level 6
[2] Building level 6
Creating AMGLevel 
[0] Building level 6
Reconstruction on level 6
[3] Building level 6
[1] Building level 7
[2] Building level 7
[1] Building level 8
Creating AMGLevel 
[0] Building level 7
Reconstruction on level 7
[2] Building level 8
[1] Building level 9
[3] Building level 7
[2] Building level 9
[1] Building level 10
[1] Building level 11
[2] Building level 10
Creating AMGLevel 
[0] Building level 8
Reconstruction on level 8
[1] Building level 12
[1] Building level 13
[2] Building level 11
[1] Building level 14
[2] Building level 12
[2] Building level 13
[2] Building level 14
[3] Building level 8
Creating AMGLevel 
[0] Building level 9
Reconstruction on level 9
Creating AMGLevel 
[0] Building level 10
Reconstruction on level 10
[3] Building level 9
Creating AMGLevel 
[0] Building level 11
Reconstruction on level 11
Creating AMGLevel 
[0] Building level 12
Reconstruction on level 12
Creating AMGLevel 
[0] Building level 13
Reconstruction on level 13
[3] Building level 10
Creating AMGLevel 
[0] Building level 14
Reconstruction on level 14
Creating AMGLevel 
14 Level construction complete
[3] Building level 11
[3] Building level 12
[3] Building level 13
[3] Building level 14
GPU: 3 iters: 0.895733 s: 2.19185 GB/s
PCGAMG:  Solving for pd, Initial residual = 0.00352135, Final residual = 0.000118714, No Iterations 3
[0] Building level 0
[1] Building level 0
[3] Building level 0
[2] Building level 0
[2] Building level 1
[3] Building level 1
[0] Building level 1
[1] Building level 1
[2] Building level 2
[3] Building level 2
[0] Building level 2
[1] Building level 2
[2] Building level 3
[3] Building level 3
[0] Building level 3
[1] Building level 3
[2] Building level 4
[3] Building level 4
[0] Building level 4
[1] Building level 4
[2] Building level 5
[3] Building level 5
[0] Building level 5
[1] Building level 5
[2] Building level 6
[3] Building level 6
[0] Building level 6
[1] Building level 6
[2] Building level 7
[3] Building level 7
[0] Building level 7
[1] Building level 7
[3] Building level 8
[2] Building level 8
[0] Building level 8
[3] Building level 9
[2] Building level 9
[3] Building level 10
[2] Building level 10
[3] Building level 11
[2] Building level 11
[3] Building level 12
[3] Building level 13
[0] Building level 9
[1] Building level 8
[3] Building level 14
[2] Building level 12
[2] Building level 13
[2] Building level 14
[0] Building level 10
[0] Building level 11
[1] Building level 9
[0] Building level 12
[0] Building level 13
[0] Building level 14
14 Level construction complete
[1] Building level 10
[1] Building level 11
[1] Building level 12
[1] Building level 13
[1] Building level 14
GPU: 3 iters: 0.894552 s: 2.19474 GB/s
PCGAMG:  Solving for pd, Initial residual = 0.00209393, Final residual = 7.76519e-05, No Iterations 3
[1] Building level 0
[0] Building level 0
[3] Building level 0
[2] Building level 0
[3] Building level 1
[2] Building level 1
[1] Building level 1
[0] Building level 1
[3] Building level 2
[2] Building level 2
[0] Building level 2
[1] Building level 2
[3] Building level 3
[2] Building level 3
[0] Building level 3
[1] Building level 3
[3] Building level 4
[2] Building level 4
[0] Building level 4
[1] Building level 4
[3] Building level 5
[2] Building level 5
[0] Building level 5
[1] Building level 5
[3] Building level 6
[2] Building level 6
[0] Building level 6
[1] Building level 6
[3] Building level 7
[2] Building level 7
[0] Building level 7
[3] Building level 8
[1] Building level 7
[3] Building level 9
[2] Building level 8
[3] Building level 10
[0] Building level 8
[3] Building level 11
[3] Building level 12
[3] Building level 13
[3] Building level 14
[2] Building level 9
[0] Building level 9
[2] Building level 10
[1] Building level 8
[2] Building level 11
[2] Building level 12
[0] Building level 10
[2] Building level 13
[2] Building level 14
[0] Building level 11
[0] Building level 12
[0] Building level 13
[1] Building level 9
[0] Building level 14
14 Level construction complete
[1] Building level 10
[1] Building level 11
[1] Building level 12
[1] Building level 13
[1] Building level 14
GPU: 20 iters: 4.67383 s: 2.80043 GB/s
PCGAMG:  Solving for pd, Initial residual = 0.00192671, Final residual = 8.38957e-08, No Iterations 20
time step continuity errors : sum local = 3.93746e-12, global = 6.33078e-25, cumulative = 9.51533e-25
ExecutionTime = 175.42 s  ClockTime = 186 s

Courant Number mean: 7.66798e-06 max: 0.00313191 velocity magnitude: 0.0489361
Time = 0.003

MULES: Solving for alpha1
Liquid phase volume fraction = 0.00275421  Min(alpha1) = -7.09186e-31  Max(alpha1) = 1
MULES: Solving for alpha1
Liquid phase volume fraction = 0.00275421  Min(alpha1) = -1.85342e-30  Max(alpha1) = 1
[1] Building level 0
[0] Building level 0
[3] Building level 0
[2] Building level 0
[2] Building level 1
[3] Building level 1
[1] Building level 1
[0] Building level 1
Reconstruction on level 1
[2] Building level 2
[1] Building level 2
[2] Building level 3
[1] Building level 3
[3] Building level 2
Creating AMGLevel 
[0] Building level 2
Reconstruction on level 2
[1] Building level 4
[2] Building level 4
[1] Building level 5
[2] Building level 5
[3] Building level 3
[1] Building level 6
Creating AMGLevel 
[0] Building level 3
Reconstruction on level 3
[2] Building level 6
[1] Building level 7
[2] Building level 7
[1] Building level 8
[2] Building level 8
[1] Building level 9
[1] Building level 10
[2] Building level 9
[1] Building level 11
[1] Building level 12
[1] Building level 13
[2] Building level 10
[1] Building level 14
[2] Building level 11
[2] Building level 12
[2] Building level 13
[2] Building level 14
[3] Building level 4
Creating AMGLevel 
[0] Building level 4
Reconstruction on level 4
[3] Building level 5
Creating AMGLevel 
[0] Building level 5
Reconstruction on level 5
[3] Building level 6
Creating AMGLevel 
[0] Building level 6
Reconstruction on level 6
[3] Building level 7
Creating AMGLevel 
[0] Building level 7
Reconstruction on level 7
[3] Building level 8
[3] Building level 9
Creating AMGLevel 
[0] Building level 8
Reconstruction on level 8
[3] Building level 10
[3] Building level 11
[3] Building level 12
Creating AMGLevel 
[3] Building level 13
[0] Building level 9
Reconstruction on level 9
[3] Building level 14
Creating AMGLevel 
[0] Building level 10
Reconstruction on level 10
Creating AMGLevel 
[0] Building level 11
Reconstruction on level 11
Creating AMGLevel 
[0] Building level 12
Reconstruction on level 12
Creating AMGLevel 
[0] Building level 13
Reconstruction on level 13
Creating AMGLevel 
[0] Building level 14
Reconstruction on level 14
Creating AMGLevel 
14 Level construction complete
GPU: 4 iters: 1.11781 s: 2.34185 GB/s
PCGAMG:  Solving for pd, Initial residual = 0.00425566, Final residual = 0.000174521, No Iterations 4
[1] Building level 0
[0] Building level 0
[2] Building level 0
[3] Building level 0
[3] Building level 1
[2] Building level 1
[0] Building level 1
[1] Building level 1
[3] Building level 2
[2] Building level 2
[0] Building level 2
[1] Building level 2
[3] Building level 3
[2] Building level 3
[0] Building level 3
[1] Building level 3
[2] Building level 4
[3] Building level 4
[0] Building level 4
[1] Building level 4
[2] Building level 5
[3] Building level 5
[0] Building level 5
[1] Building level 5
[2] Building level 6
[3] Building level 6
[1] Building level 6
[0] Building level 6
[2] Building level 7
[3] Building level 7
[1] Building level 7
[0] Building level 7
[2] Building level 8
[3] Building level 8
[2] Building level 9
[2] Building level 10
[3] Building level 9
[1] Building level 8
[2] Building level 11
[0] Building level 8
[2] Building level 12
[2] Building level 13
[2] Building level 14
[3] Building level 10
[3] Building level 11
[3] Building level 12
[3] Building level 13
[1] Building level 9
[3] Building level 14
[0] Building level 9
[1] Building level 10
[0] Building level 10
[1] Building level 11
[1] Building level 12
[0] Building level 11
[1] Building level 13
[1] Building level 14
[0] Building level 12
[0] Building level 13
[0] Building level 14
14 Level construction complete
GPU: 4 iters: 1.11632 s: 2.34498 GB/s
PCGAMG:  Solving for pd, Initial residual = 0.00306124, Final residual = 0.000101183, No Iterations 4
[1] Building level 0
[0] Building level 0
[3] Building level 0
[2] Building level 0
[3] Building level 1
[2] Building level 1
[0] Building level 1
[1] Building level 1
[2] Building level 2
[3] Building level 2
[0] Building level 2
[1] Building level 2
[2] Building level 3
[3] Building level 3
[0] Building level 3
[1] Building level 3
[2] Building level 4
[3] Building level 4
[0] Building level 4
[1] Building level 4
[2] Building level 5
[3] Building level 5
[0] Building level 5
[1] Building level 5
[2] Building level 6
[3] Building level 6
[1] Building level 6
[0] Building level 6
[2] Building level 7
[3] Building level 7
[2] Building level 8
[1] Building level 7
[3] Building level 8
[0] Building level 7
[2] Building level 9
[2] Building level 10
[2] Building level 11
[3] Building level 9
[2] Building level 12
[2] Building level 13
[2] Building level 14
[3] Building level 10
[1] Building level 8
[3] Building level 11
[3] Building level 12
[0] Building level 8
[3] Building level 13
[3] Building level 14
[1] Building level 9
[0] Building level 9
[1] Building level 10
[1] Building level 11
[0] Building level 10
[1] Building level 12
[1] Building level 13
[1] Building level 14
[0] Building level 11
[0] Building level 12
[0] Building level 13
[0] Building level 14
14 Level construction complete
GPU: 46 iters: 10.49 s: 2.86979 GB/s
PCGAMG:  Solving for pd, Initial residual = 0.0026082, Final residual = 7.88594e-08, No Iterations 46
time step continuity errors : sum local = 3.69892e-12, global = 3.22537e-24, cumulative = 4.1769e-24
ExecutionTime = 234.09 s  ClockTime = 245 s

Courant Number mean: 1.35656e-05 max: 0.00482502 velocity magnitude: 0.0753909
Time = 0.004

MULES: Solving for alpha1
Liquid phase volume fraction = 0.00275421  Min(alpha1) = -2.23642e-31  Max(alpha1) = 1
MULES: Solving for alpha1
Liquid phase volume fraction = 0.00275421  Min(alpha1) = -1.57378e-31  Max(alpha1) = 1
[1] Building level 0
[0] Building level 0
[2] Building level 0
[3] Building level 0
[2] Building level 1
[3] Building level 1
[1] Building level 1
[0] Building level 1
Reconstruction on level 1
[1] Building level 2
[1] Building level 3
[2] Building level 2
Creating AMGLevel 
[0] Building level 2
Reconstruction on level 2
[3] Building level 2
[1] Building level 4
[1] Building level 5
[2] Building level 3
Creating AMGLevel 
[1] Building level 6
[0] Building level 3
Reconstruction on level 3
[3] Building level 3
[1] Building level 7
[1] Building level 8
[1] Building level 9
[1] Building level 10
[1] Building level 11
[1] Building level 12
[1] Building level 13
[1] Building level 14
[2] Building level 4
Creating AMGLevel 
[0] Building level 4
Reconstruction on level 4
[3] Building level 4
[2] Building level 5
Creating AMGLevel 
[0] Building level 5
Reconstruction on level 5
[3] Building level 5
[2] Building level 6
Creating AMGLevel 
[0] Building level 6
Reconstruction on level 6
[3] Building level 6
[2] Building level 7
Creating AMGLevel 
[0] Building level 7
Reconstruction on level 7
[3] Building level 7
[2] Building level 8
Creating AMGLevel 
[0] Building level 8
Reconstruction on level 8
[2] Building level 9
[2] Building level 10
Creating AMGLevel 
[3] Building level 8
[0] Building level 9
Reconstruction on level 9
[2] Building level 11
[2] Building level 12
Creating AMGLevel 
[2] Building level 13
[0] Building level 10
Reconstruction on level 10
[2] Building level 14
Creating AMGLevel 
[0] Building level 11
Reconstruction on level 11
[3] Building level 9
Creating AMGLevel 
[0] Building level 12
Reconstruction on level 12
Creating AMGLevel 
[0] Building level 13
Reconstruction on level 13
Creating AMGLevel 
[0] Building level 14
Reconstruction on level 14
Creating AMGLevel 
14 Level construction complete
[3] Building level 10
[3] Building level 11
[3] Building level 12
[3] Building level 13
[3] Building level 14
GPU: 4 iters: 1.02104 s: 2.56382 GB/s
PCGAMG:  Solving for pd, Initial residual = 0.00343599, Final residual = 9.59071e-05, No Iterations 4
[1] Building level 0
[0] Building level 0
[3] Building level 0
[2] Building level 0
[3] Building level 1
[2] Building level 1
[0] Building level 1
[1] Building level 1
[3] Building level 2
[2] Building level 2
[1] Building level 2
[0] Building level 2
[3] Building level 3
[2] Building level 3
[1] Building level 3
[0] Building level 3
[3] Building level 4
[2] Building level 4
[1] Building level 4
[0] Building level 4
[3] Building level 5
[2] Building level 5
[1] Building level 5
[0] Building level 5
[3] Building level 6
[2] Building level 6
[1] Building level 6
[0] Building level 6
[3] Building level 7
[2] Building level 7
[1] Building level 7
[3] Building level 8
[2] Building level 8
[3] Building level 9
[1] Building level 8
[2] Building level 9
[0] Building level 7
[3] Building level 10
[3] Building level 11
[2] Building level 10
[3] Building level 12
[3] Building level 13
[3] Building level 14
[2] Building level 11
[1] Building level 9
[2] Building level 12
[2] Building level 13
[2] Building level 14
[1] Building level 10
[1] Building level 11
[1] Building level 12
[1] Building level 13
[1] Building level 14
[0] Building level 8
[0] Building level 9
[0] Building level 10
[0] Building level 11
[0] Building level 12
[0] Building level 13
[0] Building level 14
14 Level construction complete
GPU: 4 iters: 1.0288 s: 2.54448 GB/s
PCGAMG:  Solving for pd, Initial residual = 0.00316322, Final residual = 0.000147886, No Iterations 4
[1] Building level 0
[0] Building level 0
[2] Building level 0
[3] Building level 0
[0] Building level 1
[1] Building level 1
[2] Building level 1
[3] Building level 1
[0] Building level 2
[1] Building level 2
[3] Building level 2
[2] Building level 2
[0] Building level 3
[1] Building level 3
[3] Building level 3
[2] Building level 3
[1] Building level 4
[0] Building level 4
[3] Building level 4
[2] Building level 4
[1] Building level 5
[0] Building level 5
[3] Building level 5
[2] Building level 5
[1] Building level 6
[0] Building level 6
[1] Building level 7
[1] Building level 8
[0] Building level 7
[3] Building level 6
[2] Building level 6
[1] Building level 9
[1] Building level 10
[1] Building level 11
[1] Building level 12
[0] Building level 8
[1] Building level 13
[1] Building level 14
[0] Building level 9
[0] Building level 10
[0] Building level 11
[0] Building level 12
[0] Building level 13
[3] Building level 7
[0] Building level 14
14 Level construction complete
[2] Building level 7
[3] Building level 8
[2] Building level 8
[3] Building level 9
[2] Building level 9
[3] Building level 10
[3] Building level 11
[2] Building level 10
[3] Building level 12
[3] Building level 13
[3] Building level 14
[2] Building level 11
[2] Building level 12
[2] Building level 13
[2] Building level 14
GPU: 15 iters: 3.31701 s: 2.95946 GB/s
PCGAMG:  Solving for pd, Initial residual = 0.00244416, Final residual = 9.35575e-08, No Iterations 15
time step continuity errors : sum local = 4.369e-12, global = -2.36599e-24, cumulative = 1.81091e-24
ExecutionTime = 286.38 s  ClockTime = 298 s

Courant Number mean: 1.9242e-05 max: 0.00597572 velocity magnitude: 0.0933706
Time = 0.005

MULES: Solving for alpha1
Liquid phase volume fraction = 0.00275421  Min(alpha1) = -4.44523e-31  Max(alpha1) = 1
MULES: Solving for alpha1
Liquid phase volume fraction = 0.00275421  Min(alpha1) = -1.70738e-30  Max(alpha1) = 1
[1] Building level 0
[0] Building level 0
[2] Building level 0
[3] Building level 0
[0] Building level 1
[1] Building level 1
[2] Building level 1
[3] Building level 1
[0] Building level 2
Reconstruction on level 2
[1] Building level 2
[2] Building level 2
[1] Building level 3
Creating AMGLevel 
[0] Building level 3
Reconstruction on level 3
[2] Building level 3
[1] Building level 4
[3] Building level 2
Creating AMGLevel 
[0] Building level 4
Reconstruction on level 4
[2] Building level 4
[1] Building level 5
Creating AMGLevel 
[0] Building level 5
Reconstruction on level 5
[2] Building level 5
[1] Building level 6
Creating AMGLevel 
[0] Building level 6
Reconstruction on level 6
[3] Building level 3
[1] Building level 7
[2] Building level 6
Creating AMGLevel 
[0] Building level 7
Reconstruction on level 7
[1] Building level 8
Creating AMGLevel 
[0] Building level 8
Reconstruction on level 8
[1] Building level 9
[1] Building level 10
[2] Building level 7
Creating AMGLevel 
[0] Building level 9
Reconstruction on level 9
[1] Building level 11
[1] Building level 12
[1] Building level 13
[1] Building level 14
Creating AMGLevel 
[0] Building level 10
Reconstruction on level 10
Creating AMGLevel 
[0] Building level 11
Reconstruction on level 11
Creating AMGLevel 
[0] Building level 12
Reconstruction on level 12
Creating AMGLevel 
[0] Building level 13
Reconstruction on level 13
[2] Building level 8
Creating AMGLevel 
[0] Building level 14
Reconstruction on level 14
Creating AMGLevel 
14 Level construction complete
[2] Building level 9
[2] Building level 10
[2] Building level 11
[2] Building level 12
[2] Building level 13
[2] Building level 14
[3] Building level 4
[3] Building level 5
[3] Building level 6
[3] Building level 7
[3] Building level 8
[3] Building level 9
[3] Building level 10
[3] Building level 11
[3] Building level 12
[3] Building level 13
[3] Building level 14
GPU: 4 iters: 1.17916 s: 2.22002 GB/s
PCGAMG:  Solving for pd, Initial residual = 0.00216849, Final residual = 9.32927e-05, No Iterations 4
[1] Building level 0
[0] Building level 0
[3] Building level 0
[2] Building level 0
[0] Building level 1
[1] Building level 1
[2] Building level 1
[3] Building level 1
[0] Building level 2
[1] Building level 2
[3] Building level 2
[2] Building level 2
[0] Building level 3
[1] Building level 3
[3] Building level 3
[2] Building level 3
[1] Building level 4
[0] Building level 4
[3] Building level 4
[2] Building level 4
[1] Building level 5
[0] Building level 5
[3] Building level 5
[1] Building level 6
[2] Building level 5
[0] Building level 6
[1] Building level 7
[1] Building level 8
[0] Building level 7
[3] Building level 6
[1] Building level 9
[1] Building level 10
[1] Building level 11
[1] Building level 12
[1] Building level 13
[2] Building level 6
[1] Building level 14
[0] Building level 8
[0] Building level 9
[0] Building level 10
[0] Building level 11
[0] Building level 12
[3] Building level 7
[0] Building level 13
[0] Building level 14
14 Level construction complete
[2] Building level 7
[3] Building level 8
[3] Building level 9
[2] Building level 8
[3] Building level 10
[3] Building level 11
[3] Building level 12
[3] Building level 13
[3] Building level 14
[2] Building level 9
[2] Building level 10
[2] Building level 11
[2] Building level 12
[2] Building level 13
[2] Building level 14
GPU: 5 iters: 1.40575 s: 2.32771 GB/s
PCGAMG:  Solving for pd, Initial residual = 0.00179705, Final residual = 7.0122e-05, No Iterations 5
[1] Building level 0
[0] Building level 0
[2] Building level 0
[3] Building level 0
[1] Building level 1
[0] Building level 1
[2] Building level 1
[3] Building level 1
[0] Building level 2
[1] Building level 2
[3] Building level 2
[2] Building level 2
[0] Building level 3
[1] Building level 3
[3] Building level 3
[2] Building level 3
[1] Building level 4
[0] Building level 4
[3] Building level 4
[2] Building level 4
[1] Building level 5
[0] Building level 5
[3] Building level 5
[1] Building level 6
[2] Building level 5
[0] Building level 6
[1] Building level 7
[1] Building level 8
[0] Building level 7
[3] Building level 6
[1] Building level 9
[1] Building level 10
[1] Building level 11
[1] Building level 12
[1] Building level 13
[1] Building level 14
[2] Building level 6
[0] Building level 8
[0] Building level 9
[0] Building level 10
[0] Building level 11
[3] Building level 7
[0] Building level 12
[0] Building level 13
[0] Building level 14
14 Level construction complete
[2] Building level 7
[3] Building level 8
[3] Building level 9
[2] Building level 8
[3] Building level 10
[3] Building level 11
[3] Building level 12
[3] Building level 13
[3] Building level 14
[2] Building level 9
[2] Building level 10
[2] Building level 11
[2] Building level 12
[2] Building level 13
[2] Building level 14
GPU: 23 iters: 5.62992 s: 2.67359 GB/s
PCGAMG:  Solving for pd, Initial residual = 0.00144366, Final residual = 9.11041e-08, No Iterations 23
time step continuity errors : sum local = 4.24795e-12, global = -1.12051e-24, cumulative = 6.90403e-25
ExecutionTime = 340.94 s  ClockTime = 354 s

Courant Number mean: 2.4382e-05 max: 0.00683532 velocity magnitude: 0.106802
Time = 0.006

MULES: Solving for alpha1
Liquid phase volume fraction = 0.00275421  Min(alpha1) = -1.7635e-30  Max(alpha1) = 1
MULES: Solving for alpha1
Liquid phase volume fraction = 0.00275421  Min(alpha1) = -1.62939e-30  Max(alpha1) = 1
[0] Building level 0
[1] Building level 0
[3] Building level 0
[2] Building level 0
[0] Building level 1
[1] Building level 1
[2] Building level 1
[3] Building level 1
[0] Building level 2
Reconstruction on level 2
[1] Building level 2
Creating AMGLevel 
[0] Building level 3
Reconstruction on level 3
[1] Building level 3
[2] Building level 2
[3] Building level 2
Creating AMGLevel 
[1] Building level 4
[0] Building level 4
Reconstruction on level 4
Creating AMGLevel 
[1] Building level 5
[0] Building level 5
Reconstruction on level 5
[1] Building level 6
Creating AMGLevel 
[0] Building level 6
Reconstruction on level 6
[3] Building level 3
[2] Building level 3
[1] Building level 7
Creating AMGLevel 
[0] Building level 7
Reconstruction on level 7
[1] Building level 8
Creating AMGLevel 
[0] Building level 8
Reconstruction on level 8
[1] Building level 9
Creating AMGLevel 
[0] Building level 9
Reconstruction on level 9
[1] Building level 10
Creating AMGLevel 
[0] Building level 10
Reconstruction on level 10
[1] Building level 11
[1] Building level 12
Creating AMGLevel 
[0] Building level 11
Reconstruction on level 11
[1] Building level 13
[1] Building level 14
Creating AMGLevel 
[0] Building level 12
Reconstruction on level 12
Creating AMGLevel 
[0] Building level 13
Reconstruction on level 13
Creating AMGLevel 
[0] Building level 14
Reconstruction on level 14
Creating AMGLevel 
14 Level construction complete
[2] Building level 4
[3] Building level 4
[2] Building level 5
[3] Building level 5
[2] Building level 6
[3] Building level 6
[2] Building level 7
[3] Building level 7
[2] Building level 8
[3] Building level 8
[2] Building level 9
[3] Building level 9
[2] Building level 10
[3] Building level 10
[2] Building level 11
[2] Building level 12
[3] Building level 11
[2] Building level 13
[2] Building level 14
[3] Building level 12
[3] Building level 13
[3] Building level 14
GPU: 5 iters: 1.24961 s: 2.61856 GB/s
PCGAMG:  Solving for pd, Initial residual = 0.00227667, Final residual = 9.64492e-05, No Iterations 5
[1] Building level 0
[0] Building level 0
[2] Building level 0
[3] Building level 0
[1] Building level 1
[0] Building level 1
[3] Building level 1
[2] Building level 1
[0] Building level 2
[1] Building level 2
[2] Building level 2
[3] Building level 2
[0] Building level 3
[1] Building level 3
[3] Building level 3
[2] Building level 3
[1] Building level 4
[0] Building level 4
[3] Building level 4
[2] Building level 4
[1] Building level 5
[0] Building level 5
[3] Building level 5
[2] Building level 5
[1] Building level 6
[0] Building level 6
[1] Building level 7
[1] Building level 8
[0] Building level 7
[3] Building level 6
[1] Building level 9
[2] Building level 6
[1] Building level 10
[1] Building level 11
[1] Building level 12
[1] Building level 13
[1] Building level 14
[0] Building level 8
[0] Building level 9
[0] Building level 10
[0] Building level 11
[0] Building level 12
[0] Building level 13
[0] Building level 14
14 Level construction complete
[3] Building level 7
[2] Building level 7
[2] Building level 8
[3] Building level 8
[3] Building level 9
[2] Building level 9
[3] Building level 10
[2] Building level 10
[3] Building level 11
[2] Building level 11
[3] Building level 12
[2] Building level 12
[3] Building level 13
[2] Building level 13
[3] Building level 14
[2] Building level 14
GPU: 6 iters: 1.46229 s: 2.68526 GB/s
PCGAMG:  Solving for pd, Initial residual = 0.00117583, Final residual = 4.25251e-05, No Iterations 6
[0] Building level 0
[1] Building level 0
[3] Building level 0
[2] Building level 0
[0] Building level 1
[1] Building level 1
[2] Building level 1
[3] Building level 1
[1] Building level 2
[0] Building level 2
[3] Building level 2
[2] Building level 2
[0] Building level 3
[1] Building level 3
[3] Building level 3
[2] Building level 3
[1] Building level 4
[0] Building level 4
[3] Building level 4
[2] Building level 4
[1] Building level 5
[0] Building level 5
[3] Building level 5
[2] Building level 5
[1] Building level 6
[0] Building level 6
[1] Building level 7
[1] Building level 8
[0] Building level 7
[3] Building level 6
[2] Building level 6
[1] Building level 9
[1] Building level 10
[1] Building level 11
[1] Building level 12
[1] Building level 13
[1] Building level 14
[0] Building level 8
[0] Building level 9
[0] Building level 10
[0] Building level 11
[0] Building level 12
[0] Building level 13
[3] Building level 7
[0] Building level 14
14 Level construction complete
[2] Building level 7
[3] Building level 8
[2] Building level 8
[3] Building level 9
[2] Building level 9
[3] Building level 10
[2] Building level 10
[3] Building level 11
[2] Building level 11
[3] Building level 12
[2] Building level 12
[3] Building level 13
[3] Building level 14
[2] Building level 13
[2] Building level 14
GPU: 23 iters: 4.98805 s: 3.01762 GB/s
PCGAMG:  Solving for pd, Initial residual = 0.000701191, Final residual = 8.43793e-08, No Iterations 23
time step continuity errors : sum local = 3.91936e-12, global = -2.54153e-24, cumulative = -1.85113e-24
ExecutionTime = 395.1 s  ClockTime = 409 s

Courant Number mean: 2.94977e-05 max: 0.00763856 velocity magnitude: 0.119353
Time = 0.007

MULES: Solving for alpha1
Liquid phase volume fraction = 0.00275421  Min(alpha1) = -3.2576e-30  Max(alpha1) = 1
MULES: Solving for alpha1
Liquid phase volume fraction = 0.00275421  Min(alpha1) = -5.09328e-30  Max(alpha1) = 1
[1] Building level 0
[0] Building level 0
[3] Building level 0
[2] Building level 0
[1] Building level 1
[0] Building level 1
Reconstruction on level 1
[2] Building level 1
[3] Building level 1
[1] Building level 2
[2] Building level 2
[2] Building level 3
[1] Building level 3
Creating AMGLevel 
[0] Building level 2
Reconstruction on level 2
[3] Building level 2
[1] Building level 4
[2] Building level 4
[1] Building level 5
[2] Building level 5
Creating AMGLevel 
[0] Building level 3
Reconstruction on level 3
[1] Building level 6
[3] Building level 3
[2] Building level 6
[1] Building level 7
[2] Building level 7
[1] Building level 8
[1] Building level 9
[2] Building level 8
[1] Building level 10
[1] Building level 11
[1] Building level 12
[1] Building level 13
[2] Building level 9
[1] Building level 14
[2] Building level 10
[2] Building level 11
[2] Building level 12
[2] Building level 13
[2] Building level 14
Creating AMGLevel 
[0] Building level 4
Reconstruction on level 4
[3] Building level 4
Creating AMGLevel 
[0] Building level 5
Reconstruction on level 5
[3] Building level 5
Creating AMGLevel 
[0] Building level 6
Reconstruction on level 6
Creating AMGLevel 
[0] Building level 7
Reconstruction on level 7
Creating AMGLevel 
[3] Building level 6
[0] Building level 8
Reconstruction on level 8
Creating AMGLevel 
[0] Building level 9
Reconstruction on level 9
Creating AMGLevel 
[0] Building level 10
Reconstruction on level 10
Creating AMGLevel 
[0] Building level 11
Reconstruction on level 11
Creating AMGLevel 
[0] Building level 12
Reconstruction on level 12
Creating AMGLevel 
[0] Building level 13
Reconstruction on level 13
Creating AMGLevel 
[0] Building level 14
Reconstruction on level 14
Creating AMGLevel 
14 Level construction complete
[3] Building level 7
[3] Building level 8
[3] Building level 9
[3] Building level 10
[3] Building level 11
[3] Building level 12
[3] Building level 13
[3] Building level 14
GPU: 5 iters: 1.28938 s: 2.5378 GB/s
PCGAMG:  Solving for pd, Initial residual = 0.00232015, Final residual = 9.8241e-05, No Iterations 5
[1] Building level 0
[0] Building level 0
[2] Building level 0
[3] Building level 0
[0] Building level 1
[1] Building level 1
[3] Building level 1
[2] Building level 1
[1] Building level 2
[3] Building level 2
[2] Building level 2
[0] Building level 2
[1] Building level 3
[3] Building level 3
[0] Building level 3
[2] Building level 3
[1] Building level 4
[0] Building level 4
[3] Building level 4
[2] Building level 4
[1] Building level 5
[0] Building level 5
[3] Building level 5
[2] Building level 5
[1] Building level 6
[0] Building level 6
[1] Building level 7
[3] Building level 6
[1] Building level 8
[2] Building level 6
[1] Building level 9
[0] Building level 7
[1] Building level 10
[1] Building level 11
[1] Building level 12
[1] Building level 13
[1] Building level 14
[3] Building level 7
[0] Building level 8
[0] Building level 9
[2] Building level 7
[0] Building level 10
[3] Building level 8
[0] Building level 11
[0] Building level 12
[0] Building level 13
[0] Building level 14
14 Level construction complete
[3] Building level 9
[2] Building level 8
[3] Building level 10
[3] Building level 11
[3] Building level 12
[3] Building level 13
[3] Building level 14
[2] Building level 9
[2] Building level 10
[2] Building level 11
[2] Building level 12
[2] Building level 13
[2] Building level 14
GPU: 6 iters: 1.50099 s: 2.61603 GB/s
PCGAMG:  Solving for pd, Initial residual = 0.00108678, Final residual = 3.0675e-05, No Iterations 6
[1] Building level 0
[0] Building level 0
[3] Building level 0
[2] Building level 0
[0] Building level 1
[1] Building level 1
[2] Building level 1
[3] Building level 1
[0] Building level 2
[1] Building level 2
[3] Building level 2
[2] Building level 2
[1] Building level 3
[0] Building level 3
[3] Building level 3
[2] Building level 3
[1] Building level 4
[0] Building level 4
[3] Building level 4
[2] Building level 4
[1] Building level 5
[0] Building level 5
[3] Building level 5
[1] Building level 6
[2] Building level 5
[0] Building level 6
[1] Building level 7
[1] Building level 8
[3] Building level 6
[1] Building level 9
[1] Building level 10
[0] Building level 7
[1] Building level 11
[1] Building level 12
[1] Building level 13
[1] Building level 14
[2] Building level 6
[0] Building level 8
[0] Building level 9
[3] Building level 7
[0] Building level 10
[0] Building level 11
[0] Building level 12
[0] Building level 13
[0] Building level 14
14 Level construction complete
[2] Building level 7
[3] Building level 8
[3] Building level 9
[2] Building level 8
[3] Building level 10
[3] Building level 11
[3] Building level 12
[3] Building level 13
[3] Building level 14
[2] Building level 9
[2] Building level 10
[2] Building level 11
[2] Building level 12
[2] Building level 13
[2] Building level 14
GPU: 28 iters: 6.19859 s: 2.95619 GB/s
PCGAMG:  Solving for pd, Initial residual = 0.000523915, Final residual = 9.64022e-08, No Iterations 28
time step continuity errors : sum local = 4.47599e-12, global = 5.32519e-25, cumulative = -1.31861e-24
ExecutionTime = 450.43 s  ClockTime = 465 s

Courant Number mean: 3.46186e-05 max: 0.00834621 velocity magnitude: 0.130409
Time = 0.008

MULES: Solving for alpha1
Liquid phase volume fraction = 0.00275421  Min(alpha1) = -5.92553e-30  Max(alpha1) = 1
MULES: Solving for alpha1
Liquid phase volume fraction = 0.00275421  Min(alpha1) = -7.66891e-30  Max(alpha1) = 1
[1] Building level 0
[0] Building level 0
[3] Building level 0
[2] Building level 0
[1] Building level 1
[0] Building level 1
Reconstruction on level 1
[3] Building level 1
[2] Building level 1
[1] Building level 2
[1] Building level 3
Creating AMGLevel 
[0] Building level 2
Reconstruction on level 2
[3] Building level 2
[2] Building level 2
[1] Building level 4
[1] Building level 5
Creating AMGLevel 
[0] Building level 3
Reconstruction on level 3
[1] Building level 6
[3] Building level 3
[2] Building level 3
[1] Building level 7
[1] Building level 8
[1] Building level 9
[1] Building level 10
[1] Building level 11
[1] Building level 12
[1] Building level 13
[1] Building level 14
Creating AMGLevel 
[0] Building level 4
Reconstruction on level 4
[3] Building level 4
[2] Building level 4
Creating AMGLevel 
[0] Building level 5
Reconstruction on level 5
[3] Building level 5
[2] Building level 5
Creating AMGLevel 
[0] Building level 6
Reconstruction on level 6
Creating AMGLevel 
[0] Building level 7
Reconstruction on level 7
[3] Building level 6
[2] Building level 6
Creating AMGLevel 
[0] Building level 8
Reconstruction on level 8
Creating AMGLevel 
[0] Building level 9
Reconstruction on level 9
Creating AMGLevel 
[0] Building level 10
Reconstruction on level 10
[3] Building level 7
Creating AMGLevel 
[0] Building level 11
Reconstruction on level 11
Creating AMGLevel 
[0] Building level 12
Reconstruction on level 12
Creating AMGLevel 
[0] Building level 13
Reconstruction on level 13
Creating AMGLevel 
[0] Building level 14
Reconstruction on level 14
Creating AMGLevel 
14 Level construction complete
[2] Building level 7
[3] Building level 8
[2] Building level 8
[3] Building level 9
[3] Building level 10
[3] Building level 11
[2] Building level 9
[3] Building level 12
[3] Building level 13
[3] Building level 14
[2] Building level 10
[2] Building level 11
[2] Building level 12
[2] Building level 13
[2] Building level 14
GPU: 6 iters: 1.47247 s: 2.66669 GB/s
PCGAMG:  Solving for pd, Initial residual = 0.00235976, Final residual = 6.7113e-05, No Iterations 6
[0] Building level 0
[1] Building level 0
[3] Building level 0
[2] Building level 0
[0] Building level 1
[1] Building level 1
[3] Building level 1
[2] Building level 1
[0] Building level 2
[1] Building level 2
[3] Building level 2
[2] Building level 2
[0] Building level 3
[1] Building level 3
[3] Building level 3
[2] Building level 3
[0] Building level 4
[1] Building level 4
[3] Building level 4
[2] Building level 4
[1] Building level 5
[0] Building level 5
[1] Building level 6
[3] Building level 5
[2] Building level 5
[0] Building level 6
[1] Building level 7
[0] Building level 7
[1] Building level 8
[0] Building level 8
[1] Building level 9
[1] Building level 10
[0] Building level 9
[1] Building level 11
[1] Building level 12
[1] Building level 13
[1] Building level 14
[3] Building level 6
[0] Building level 10
[2] Building level 6
[0] Building level 11
[0] Building level 12
[0] Building level 13
[0] Building level 14
14 Level construction complete
[3] Building level 7
[2] Building level 7
[3] Building level 8
[2] Building level 8
[3] Building level 9
[2] Building level 9
[3] Building level 10
[2] Building level 10
[3] Building level 11
[3] Building level 12
[2] Building level 11
[3] Building level 13
[3] Building level 14
[2] Building level 12
[2] Building level 13
[2] Building level 14
GPU: 6 iters: 1.46598 s: 2.67849 GB/s
PCGAMG:  Solving for pd, Initial residual = 0.00103301, Final residual = 3.50152e-05, No Iterations 6
[1] Building level 0
[0] Building level 0
[2] Building level 0
[3] Building level 0
[0] Building level 1
[1] Building level 1
[2] Building level 1
[3] Building level 1
[0] Building level 2
[1] Building level 2
[2] Building level 2
[3] Building level 2
[1] Building level 3
[0] Building level 3
[2] Building level 3
[3] Building level 3
[1] Building level 4
[0] Building level 4
[2] Building level 4
[3] Building level 4
[1] Building level 5
[0] Building level 5
[2] Building level 5
[3] Building level 5
[1] Building level 6
[0] Building level 6
[1] Building level 7
[0] Building level 7
[1] Building level 8
[0] Building level 8
[2] Building level 6
[3] Building level 6
[1] Building level 9
[0] Building level 9
[1] Building level 10
[1] Building level 11
[0] Building level 10
[1] Building level 12
[1] Building level 13
[1] Building level 14
[0] Building level 11
[0] Building level 12
[0] Building level 13
[0] Building level 14
14 Level construction complete
[2] Building level 7
[3] Building level 7
[2] Building level 8
[3] Building level 8
[2] Building level 9
[3] Building level 9
[2] Building level 10
[3] Building level 10
[2] Building level 11
[2] Building level 12
[3] Building level 11
[2] Building level 13
[2] Building level 14
[3] Building level 12
[3] Building level 13
[3] Building level 14
GPU: 17 iters: 3.74072 s: 2.97414 GB/s
PCGAMG:  Solving for pd, Initial residual = 0.00044773, Final residual = 9.87316e-08, No Iterations 17
time step continuity errors : sum local = 4.55878e-12, global = -6.26077e-24, cumulative = -7.57938e-24
ExecutionTime = 504.08 s  ClockTime = 520 s

Courant Number mean: 3.97536e-05 max: 0.00903929 velocity magnitude: 0.140324
Time = 0.009

MULES: Solving for alpha1
Liquid phase volume fraction = 0.00275421  Min(alpha1) = -1.2888e-29  Max(alpha1) = 1
MULES: Solving for alpha1
Liquid phase volume fraction = 0.00275421  Min(alpha1) = -2.44819e-29  Max(alpha1) = 1
[1] Building level 0
[0] Building level 0
[3] Building level 0
[2] Building level 0
[1] Building level 1
[0] Building level 1
Reconstruction on level 1
[3] Building level 1
[2] Building level 1
[2] Building level 2
[2] Building level 3
Creating AMGLevel 
[0] Building level 2
Reconstruction on level 2
[1] Building level 2
[3] Building level 2
[2] Building level 4
[2] Building level 5
Creating AMGLevel 
[0] Building level 3
Reconstruction on level 3
[1] Building level 3
[3] Building level 3
[2] Building level 6
[2] Building level 7
[2] Building level 8
[2] Building level 9
[2] Building level 10
[2] Building level 11
[2] Building level 12
[2] Building level 13
[2] Building level 14
Creating AMGLevel 
[0] Building level 4
Reconstruction on level 4
[1] Building level 4
[3] Building level 4
Creating AMGLevel 
[0] Building level 5
Reconstruction on level 5
[1] Building level 5
[3] Building level 5
Creating AMGLevel 
[0] Building level 6
Reconstruction on level 6
[1] Building level 6
Creating AMGLevel 
[0] Building level 7
Reconstruction on level 7
[3] Building level 6
[1] Building level 7
Creating AMGLevel 
[0] Building level 8
Reconstruction on level 8
Creating AMGLevel 
[0] Building level 9
Reconstruction on level 9
[1] Building level 8
Creating AMGLevel 
[0] Building level 10
Reconstruction on level 10
Creating AMGLevel 
[0] Building level 11
Reconstruction on level 11
Creating AMGLevel 
[0] Building level 12
Reconstruction on level 12
Creating AMGLevel 
[0] Building level 13
Reconstruction on level 13
Creating AMGLevel 
[0] Building level 14
Reconstruction on level 14
[3] Building level 7
[1] Building level 9
Creating AMGLevel 
14 Level construction complete
[1] Building level 10
[1] Building level 11
[1] Building level 12
[1] Building level 13
[1] Building level 14
[3] Building level 8
[3] Building level 9
[3] Building level 10
[3] Building level 11
[3] Building level 12
[3] Building level 13
[3] Building level 14
GPU: 4 iters: 1.1088 s: 2.36089 GB/s
PCGAMG:  Solving for pd, Initial residual = 0.00242069, Final residual = 9.69112e-05, No Iterations 4
[1] Building level 0
[0] Building level 0
[3] Building level 0
[2] Building level 0
[0] Building level 1
[1] Building level 1
[3] Building level 1
[2] Building level 1
[1] Building level 2
[0] Building level 2
[3] Building level 2
[2] Building level 2
[1] Building level 3
[0] Building level 3
[3] Building level 3
[2] Building level 3
[1] Building level 4
[0] Building level 4
[3] Building level 4
[2] Building level 4
[1] Building level 5
[0] Building level 5
[3] Building level 5
[1] Building level 6
[2] Building level 5
[1] Building level 7
[0] Building level 6
[1] Building level 8
[1] Building level 9
[1] Building level 10
[3] Building level 6
[1] Building level 11
[1] Building level 12
[1] Building level 13
[1] Building level 14
[2] Building level 6
[0] Building level 7
[0] Building level 8
[3] Building level 7
[2] Building level 7
[0] Building level 9
[0] Building level 10
[0] Building level 11
[0] Building level 12
[0] Building level 13
[3] Building level 8
[0] Building level 14
14 Level construction complete
[2] Building level 8
[3] Building level 9
[3] Building level 10
[2] Building level 9
[3] Building level 11
[3] Building level 12
[3] Building level 13
[3] Building level 14
[2] Building level 10
[2] Building level 11
[2] Building level 12
[2] Building level 13
[2] Building level 14
GPU: 5 iters: 1.32477 s: 2.47001 GB/s
PCGAMG:  Solving for pd, Initial residual = 0.00101581, Final residual = 3.77306e-05, No Iterations 5
[1] Building level 0
[0] Building level 0
[3] Building level 0
[2] Building level 0
[0] Building level 1
[1] Building level 1
[2] Building level 1
[3] Building level 1
[1] Building level 2
[0] Building level 2
[2] Building level 2
[3] Building level 2
[1] Building level 3
[0] Building level 3
[2] Building level 3
[3] Building level 3
[1] Building level 4
[0] Building level 4
[3] Building level 4
[2] Building level 4
[1] Building level 5
[0] Building level 5
[1] Building level 6
[3] Building level 5
[2] Building level 5
[1] Building level 7
[0] Building level 6
[1] Building level 8
[1] Building level 9
[1] Building level 10
[1] Building level 11
[1] Building level 12
[1] Building level 13
[3] Building level 6
[1] Building level 14
[2] Building level 6
[0] Building level 7
[0] Building level 8
[0] Building level 9
[3] Building level 7
[2] Building level 7
[0] Building level 10
[0] Building level 11
[0] Building level 12
[0] Building level 13
[0] Building level 14
14 Level construction complete
[3] Building level 8
[2] Building level 8
[3] Building level 9
[2] Building level 9
[3] Building level 10
[2] Building level 10
[3] Building level 11
[3] Building level 12
[3] Building level 13
[3] Building level 14
[2] Building level 11
[2] Building level 12
[2] Building level 13
[2] Building level 14
GPU: 15 iters: 3.53715 s: 2.77528 GB/s
PCGAMG:  Solving for pd, Initial residual = 0.000365622, Final residual = 7.12569e-08, No Iterations 15
time step continuity errors : sum local = 3.28283e-12, global = 1.21056e-24, cumulative = -6.36882e-24
ExecutionTime = 556.74 s  ClockTime = 573 s

Courant Number mean: 4.49082e-05 max: 0.00972003 velocity magnitude: 0.149331
Time = 0.01

MULES: Solving for alpha1
Liquid phase volume fraction = 0.00275421  Min(alpha1) = -2.17674e-29  Max(alpha1) = 1
MULES: Solving for alpha1
Liquid phase volume fraction = 0.00275421  Min(alpha1) = -5.8339e-29  Max(alpha1) = 1
[1] Building level 0
[0] Building level 0
[3] Building level 0
[2] Building level 0
[1] Building level 1
[0] Building level 1
Reconstruction on level 1
[2] Building level 1
[3] Building level 1
Creating AMGLevel 
[0] Building level 2
Reconstruction on level 2
[1] Building level 2
[2] Building level 2
[3] Building level 2
Creating AMGLevel 
[0] Building level 3
Reconstruction on level 3
[1] Building level 3
[3] Building level 3
[2] Building level 3
Creating AMGLevel 
[0] Building level 4
Reconstruction on level 4
[1] Building level 4
[3] Building level 4
[2] Building level 4
Creating AMGLevel 
[0] Building level 5
Reconstruction on level 5
[1] Building level 5
[3] Building level 5
[2] Building level 5
Creating AMGLevel 
[0] Building level 6
Reconstruction on level 6
[1] Building level 6
Creating AMGLevel 
[0] Building level 7
Reconstruction on level 7
[3] Building level 6
[1] Building level 7
[2] Building level 6
Creating AMGLevel 
[0] Building level 8
Reconstruction on level 8
[1] Building level 8
Creating AMGLevel 
[0] Building level 9
Reconstruction on level 9
Creating AMGLevel 
[0] Building level 10
Reconstruction on level 10
[1] Building level 9
[3] Building level 7
Creating AMGLevel 
[0] Building level 11
Reconstruction on level 11
Creating AMGLevel 
[0] Building level 12
Reconstruction on level 12
[1] Building level 10
[2] Building level 7
Creating AMGLevel 
[0] Building level 13
Reconstruction on level 13
Creating AMGLevel 
[0] Building level 14
Reconstruction on level 14
[1] Building level 11
Creating AMGLevel 
14 Level construction complete
[1] Building level 12
[1] Building level 13
[1] Building level 14
[3] Building level 8
[2] Building level 8
[3] Building level 9
[2] Building level 9
[3] Building level 10
[3] Building level 11
[2] Building level 10
[3] Building level 12
[3] Building level 13
[2] Building level 11
[3] Building level 14
[2] Building level 12
[2] Building level 13
[2] Building level 14
GPU: 4 iters: 1.10517 s: 2.36864 GB/s
PCGAMG:  Solving for pd, Initial residual = 0.00258661, Final residual = 0.000114779, No Iterations 4
[0] Building level 0
[1] Building level 0
[3] Building level 0
[2] Building level 0
[1] Building level 1
[0] Building level 1
[3] Building level 1
[2] Building level 1
[0] Building level 2
[1] Building level 2
[2] Building level 2
[3] Building level 2
[0] Building level 3
[1] Building level 3
[2] Building level 3
[3] Building level 3
[0] Building level 4
[1] Building level 4
[2] Building level 4
[3] Building level 4
[0] Building level 5
[1] Building level 5
[0] Building level 6
[1] Building level 6
[2] Building level 5
[0] Building level 7
[1] Building level 7
[3] Building level 5
[0] Building level 8
[1] Building level 8
[0] Building level 9
[1] Building level 9
[0] Building level 10
[1] Building level 10
[0] Building level 11
[1] Building level 11
[0] Building level 12
[1] Building level 12
[0] Building level 13
[1] Building level 13
[0] Building level 14
[1] Building level 14
14 Level construction complete
[2] Building level 6
[3] Building level 6
[2] Building level 7
[2] Building level 8
[2] Building level 9
[3] Building level 7
[2] Building level 10
[2] Building level 11
[2] Building level 12
[2] Building level 13
[2] Building level 14
[3] Building level 8
[3] Building level 9
[3] Building level 10
[3] Building level 11
[3] Building level 12
[3] Building level 13
[3] Building level 14
GPU: 5 iters: 1.3031 s: 2.51107 GB/s
PCGAMG:  Solving for pd, Initial residual = 0.00101688, Final residual = 4.52471e-05, No Iterations 5
[1] Building level 0
[0] Building level 0
[3] Building level 0
[2] Building level 0
[0] Building level 1
[1] Building level 1
[3] Building level 1
[2] Building level 1
[1] Building level 2
[0] Building level 2
[2] Building level 2
[3] Building level 2
[1] Building level 3
[0] Building level 3
[2] Building level 3
[3] Building level 3
[1] Building level 4
[0] Building level 4
[2] Building level 4
[3] Building level 4
[1] Building level 5
[0] Building level 5
[1] Building level 6
[2] Building level 5
[0] Building level 6
[1] Building level 7
[3] Building level 5
[1] Building level 8
[1] Building level 9
[0] Building level 7
[1] Building level 10
[1] Building level 11
[1] Building level 12
[1] Building level 13
[1] Building level 14
[0] Building level 8
[2] Building level 6
[0] Building level 9
[0] Building level 10
[0] Building level 11
[0] Building level 12
[0] Building level 13
[0] Building level 14
14 Level construction complete
[3] Building level 6
[2] Building level 7
[2] Building level 8
[3] Building level 7
[2] Building level 9
[2] Building level 10
[2] Building level 11
[2] Building level 12
[2] Building level 13
[2] Building level 14
[3] Building level 8
[3] Building level 9
[3] Building level 10
[3] Building level 11
[3] Building level 12
[3] Building level 13
[3] Building level 14
GPU: 50 iters: 11.2018 s: 2.92112 GB/s
PCGAMG:  Solving for pd, Initial residual = 0.000328625, Final residual = 4.47876e-06, No Iterations 50
time step continuity errors : sum local = 2.0517e-10, global = 1.69848e-24, cumulative = -4.67034e-24
ExecutionTime = 617.08 s  ClockTime = 635 s

End

Finalising parallel run
