 Data for JOB [48454,1] offset 0

 ========================   JOB MAP   ========================

 Data for node: ivb106	Num slots: 3	Max slots: 0	Num procs: 3
 	Process OMPI jobid: [48454,1] App: 0 Process rank: 0
 	Process OMPI jobid: [48454,1] App: 0 Process rank: 1
 	Process OMPI jobid: [48454,1] App: 0 Process rank: 2

 Data for node: ivb108	Num slots: 3	Max slots: 0	Num procs: 3
 	Process OMPI jobid: [48454,1] App: 0 Process rank: 3
 	Process OMPI jobid: [48454,1] App: 0 Process rank: 4
 	Process OMPI jobid: [48454,1] App: 0 Process rank: 5

 =============================================================
[ivb106:14036] MCW rank 0 bound to socket 0[core 0[hwt 0]]: [B/././././././././.][./././././././././.]
[ivb106:14036] MCW rank 1 bound to socket 0[core 1[hwt 0]]: [./B/./././././././.][./././././././././.]
[ivb106:14036] MCW rank 2 bound to socket 0[core 2[hwt 0]]: [././B/././././././.][./././././././././.]
[ivb108:36969] MCW rank 3 bound to socket 0[core 0[hwt 0]]: [B/././././././././.][./././././././././.]
[ivb108:36969] MCW rank 4 bound to socket 0[core 1[hwt 0]]: [./B/./././././././.][./././././././././.]
[ivb108:36969] MCW rank 5 bound to socket 0[core 2[hwt 0]]: [././B/././././././.][./././././././././.]
0
1
2
1
0
2
/*---------------------------------------------------------------------------*\
| =========                 |                                                 |
| \\      /  F ield         | foam-extend: Open Source CFD                    |
|  \\    /   O peration     | Version:     3.1                                |
|   \\  /    A nd           | Web:         http://www.extend-project.de       |
|    \\/     M anipulation  |                                                 |
\*---------------------------------------------------------------------------*/
Build    : 3.1-e2da948002a2
Exec     : interFoam -parallel
Date     : May 21 2016
Time     : 21:55:27
Host     : ivb106
PID      : 14072
CtrlDict : /home-2/vplatonov/foam/foam-extend-3.1/etc/controlDict
Case     : /home/vplatonov/tests/rt12mln
nProcs   : 6
Slaves : 
5
(
ivb106.14069
ivb106.14077
ivb108.37000
ivb108.37003
ivb108.36999
)

Pstream initialized with:
    floatTransfer     : 0
    nProcsSimpleSum   : 0
    commsType         : blocking
SigFpe   : Enabling floating point exception trapping (FOAM_SIGFPE).

// * * * * * * * * * * * * * * * * * * * * * * * * * * * * * * * * * * * * * //
Create time

Create mesh for time = 0


Reading g
Reading field pd

Reading field alpha1

Reading field U

Reading/calculating face flux field phi

Reading transportProperties

Selecting incompressible transport model Newtonian
Selecting incompressible transport model Newtonian
Calculating field g.h

Selecting turbulence model type laminar
time step continuity errors : sum local = 0, global = 0, cumulative = 0
[1] Building level 0
[2] Building level 0
Created persistent data with name pcorr
[0] Building level 0
[4] Building level 0
[3] Building level 0
[5] Building level 0
[1] Building level 1
[2] Building level 1
Creating AMGLevel 
[3] Building level 1
[0] Building level 1
[4] Building level 1
[5] Building level 1
[1] Building level 2
[2] Building level 2
Creating AMGLevel 
[0] Building level 2
[3] Building level 2
[4] Building level 2
[5] Building level 2
[1] Building level 3
[2] Building level 3
Creating AMGLevel 
[0] Building level 3
[3] Building level 3
[4] Building level 3
[5] Building level 3
[2] Building level 4
[1] Building level 4
Creating AMGLevel 
[0] Building level 4
[4] Building level 4
[3] Building level 4
[5] Building level 4
[2] Building level 5
[1] Building level 5
Creating AMGLevel 
[0] Building level 5
[4] Building level 5
[3] Building level 5
[1] Building level 6
[2] Building level 6
[1] Building level 7
[2] Building level 7
Creating AMGLevel 
[0] Building level 6
[5] Building level 5
[4] Building level 6
[3] Building level 6
[1] Building level 8
[2] Building level 8
[1] Building level 9
[2] Building level 9
Creating AMGLevel 
[0] Building level 7
[1] Building level 10
[2] Building level 10
[1] Building level 11
[2] Building level 11
[1] Building level 12
[4] Building level 7
[2] Building level 12
[1] Building level 13
[1] Building level 14
[2] Building level 13
[2] Building level 14
[3] Building level 7
Creating AMGLevel 
[0] Building level 8
[4] Building level 8
[5] Building level 6
Creating AMGLevel 
[0] Building level 9
[3] Building level 8
Creating AMGLevel 
[0] Building level 10
[4] Building level 9
Creating AMGLevel 
[0] Building level 11
Creating AMGLevel 
[0] Building level 12
Creating AMGLevel 
[0] Building level 13
Creating AMGLevel 
[0] Building level 14
[4] Building level 10
[3] Building level 9
Creating AMGLevel 
14 Level construction complete
[4] Building level 11
[4] Building level 12
[3] Building level 10
[4] Building level 13
[4] Building level 14
[3] Building level 11
[3] Building level 12
[5] Building level 7
[3] Building level 13
[3] Building level 14
[5] Building level 8
[5] Building level 9
[5] Building level 10
[5] Building level 11
[5] Building level 12
[5] Building level 13
[5] Building level 14
PCGAMG:  Solving for pcorr, Initial residual = 0, Final residual = 0, No Iterations 0
time step continuity errors : sum local = 0, global = 0, cumulative = 0
Courant Number mean: 0 max: 0 velocity magnitude: 0

Starting time loop

Courant Number mean: 0 max: 0 velocity magnitude: 0
Time = 0.001

MULES: Solving for alpha1
Liquid phase volume fraction = 0.00275421  Min(alpha1) = 0  Max(alpha1) = 1
MULES: Solving for alpha1
Liquid phase volume fraction = 0.00275421  Min(alpha1) = 0  Max(alpha1) = 1
[2] Building level 0
[1] Building level 0
Created persistent data with name pd
[0] Building level 0
[4] Building level 0
[3] Building level 0
[5] Building level 0
[1] Building level 1
[2] Building level 1
Creating AMGLevel 
[0] Building level 1
[3] Building level 1
[4] Building level 1
[5] Building level 1
[2] Building level 2
[1] Building level 2
Creating AMGLevel 
[0] Building level 2
[3] Building level 2
[4] Building level 2
[5] Building level 2
[2] Building level 3
[1] Building level 3
Creating AMGLevel 
[0] Building level 3
[3] Building level 3
[4] Building level 3
[5] Building level 3
[2] Building level 4
[1] Building level 4
Creating AMGLevel 
[0] Building level 4
[3] Building level 4
[4] Building level 4
[2] Building level 5
[1] Building level 5
[5] Building level 4
Creating AMGLevel 
[0] Building level 5
[2] Building level 6
[3] Building level 5
[1] Building level 6
[4] Building level 5
[2] Building level 7
[1] Building level 7
Creating AMGLevel 
[0] Building level 6
[2] Building level 8
[1] Building level 8
[5] Building level 5
[3] Building level 6
[2] Building level 9
[4] Building level 6
[1] Building level 9
[2] Building level 10
[1] Building level 10
[2] Building level 11
Creating AMGLevel 
[0] Building level 7
[1] Building level 11
[2] Building level 12
[1] Building level 12
[2] Building level 13
[1] Building level 13
[2] Building level 14
[1] Building level 14
Creating AMGLevel 
[0] Building level 8
[3] Building level 7
[4] Building level 7
Creating AMGLevel 
[0] Building level 9
Creating AMGLevel 
[0] Building level 10
[3] Building level 8
Creating AMGLevel 
[0] Building level 11
[5] Building level 6
Creating AMGLevel 
[0] Building level 12
[4] Building level 8
Creating AMGLevel 
[0] Building level 13
Creating AMGLevel 
[0] Building level 14
Creating AMGLevel 
14 Level construction complete
[3] Building level 9
[4] Building level 9
[3] Building level 10
[4] Building level 10
[3] Building level 11
[3] Building level 12
[3] Building level 13
[4] Building level 11
[3] Building level 14
[4] Building level 12
[4] Building level 13
[5] Building level 7
[4] Building level 14
[5] Building level 8
[5] Building level 9
[5] Building level 10
[5] Building level 11
[5] Building level 12
[5] Building level 13
[5] Building level 14
GPU: 1 iters: 0.356777 s: 1.22252 GB/s
PCGAMG:  Solving for pd, Initial residual = 1, Final residual = 0.034974, No Iterations 1
[1] Building level 0
[2] Building level 0
[0] Building level 0
[3] Building level 0
[4] Building level 0
[5] Building level 0
[1] Building level 1
[4] Building level 1
[2] Building level 1
[0] Building level 1
[5] Building level 1
[3] Building level 1
[1] Building level 2
[2] Building level 2
[4] Building level 2
[0] Building level 2
[5] Building level 2
[3] Building level 2
[1] Building level 3
[2] Building level 3
[4] Building level 3
[3] Building level 3
[0] Building level 3
[5] Building level 3
[1] Building level 4
[2] Building level 4
[3] Building level 4
[0] Building level 4
[4] Building level 4
[5] Building level 4
[1] Building level 5
[2] Building level 5
[1] Building level 6
[3] Building level 5
[0] Building level 5
[5] Building level 5
[4] Building level 5
[2] Building level 6
[1] Building level 7
[1] Building level 8
[1] Building level 9
[2] Building level 7
[1] Building level 10
[3] Building level 6
[1] Building level 11
[1] Building level 12
[1] Building level 13
[1] Building level 14
[0] Building level 6
[2] Building level 8
[4] Building level 6
[5] Building level 6
[2] Building level 9
[2] Building level 10
[2] Building level 11
[2] Building level 12
[3] Building level 7
[2] Building level 13
[2] Building level 14
[0] Building level 7
[4] Building level 7
[5] Building level 7
[3] Building level 8
[3] Building level 9
[0] Building level 8
[3] Building level 10
[4] Building level 8
[5] Building level 8
[3] Building level 11
[3] Building level 12
[3] Building level 13
[3] Building level 14
[0] Building level 9
[4] Building level 9
[0] Building level 10
[5] Building level 9
[0] Building level 11
[5] Building level 10
[0] Building level 12
[4] Building level 10
[0] Building level 13
[0] Building level 14
14 Level construction complete
[5] Building level 11
[4] Building level 11
[5] Building level 12
[4] Building level 12
[5] Building level 13
[4] Building level 13
[5] Building level 14
[4] Building level 14
GPU: 3 iters: 0.698696 s: 1.87277 GB/s
PCGAMG:  Solving for pd, Initial residual = 0.0223995, Final residual = 0.000994506, No Iterations 3
[1] Building level 0
[2] Building level 0
[0] Building level 0
[3] Building level 0
[5] Building level 0
[4] Building level 0
[4] Building level 1
[1] Building level 1
[5] Building level 1
[3] Building level 1
[2] Building level 1
[0] Building level 1
[1] Building level 2
[4] Building level 2
[2] Building level 2
[5] Building level 2
[3] Building level 2
[0] Building level 2
[1] Building level 3
[4] Building level 3
[3] Building level 3
[2] Building level 3
[5] Building level 3
[0] Building level 3
[1] Building level 4
[3] Building level 4
[2] Building level 4
[5] Building level 4
[4] Building level 4
[0] Building level 4
[1] Building level 5
[3] Building level 5
[2] Building level 5
[5] Building level 5
[4] Building level 5
[1] Building level 6
[0] Building level 5
[3] Building level 6
[2] Building level 6
[5] Building level 6
[4] Building level 6
[1] Building level 7
[1] Building level 8
[3] Building level 7
[1] Building level 9
[2] Building level 7
[1] Building level 10
[5] Building level 7
[4] Building level 7
[1] Building level 11
[1] Building level 12
[1] Building level 13
[1] Building level 14
[3] Building level 8
[0] Building level 6
[2] Building level 8
[3] Building level 9
[5] Building level 8
[4] Building level 8
[3] Building level 10
[3] Building level 11
[2] Building level 9
[3] Building level 12
[3] Building level 13
[3] Building level 14
[5] Building level 9
[4] Building level 9
[2] Building level 10
[2] Building level 11
[5] Building level 10
[2] Building level 12
[4] Building level 10
[2] Building level 13
[2] Building level 14
[5] Building level 11
[4] Building level 11
[5] Building level 12
[5] Building level 13
[4] Building level 12
[5] Building level 14
[4] Building level 13
[4] Building level 14
[0] Building level 7
[0] Building level 8
[0] Building level 9
[0] Building level 10
[0] Building level 11
[0] Building level 12
[0] Building level 13
[0] Building level 14
14 Level construction complete
GPU: 50 iters: 8.92887 s: 2.44245 GB/s
PCGAMG:  Solving for pd, Initial residual = 0.00568255, Final residual = 8.55398e-07, No Iterations 50
time step continuity errors : sum local = 6.36597e-11, global = -2.59873e-24, cumulative = -2.59873e-24
ExecutionTime = 91.93 s  ClockTime = 105 s

Courant Number mean: 4.83217e-06 max: 0.00215803 velocity magnitude: 0.0337191
Time = 0.002

MULES: Solving for alpha1
Liquid phase volume fraction = 0.00275421  Min(alpha1) = 0  Max(alpha1) = 1
MULES: Solving for alpha1
Liquid phase volume fraction = 0.00275421  Min(alpha1) = -5.60781e-30  Max(alpha1) = 1
[1] Building level 0
[2] Building level 0
[0] Building level 0
[3] Building level 0
[4] Building level 0
[5] Building level 0
[1] Building level 1
[4] Building level 1
[0] Building level 1
Reconstruction on level 1
[2] Building level 1
[5] Building level 1
[3] Building level 1
[2] Building level 2
[3] Building level 2
[2] Building level 3
[3] Building level 3
[2] Building level 4
[3] Building level 4
[2] Building level 5
[3] Building level 5
[1] Building level 2
Creating AMGLevel 
[4] Building level 2
[0] Building level 2
Reconstruction on level 2
[5] Building level 2
[2] Building level 6
[3] Building level 6
[2] Building level 7
[3] Building level 7
[2] Building level 8
[3] Building level 8
[2] Building level 9
[3] Building level 9
[2] Building level 10
[2] Building level 11
[3] Building level 10
[2] Building level 12
[2] Building level 13
[3] Building level 11
[2] Building level 14
[3] Building level 12
[3] Building level 13
[3] Building level 14
[1] Building level 3
Creating AMGLevel 
[0] Building level 3
Reconstruction on level 3
[4] Building level 3
[5] Building level 3
[1] Building level 4
Creating AMGLevel 
[0] Building level 4
Reconstruction on level 4
[4] Building level 4
[5] Building level 4
[1] Building level 5
Creating AMGLevel 
[0] Building level 5
Reconstruction on level 5
[1] Building level 6
[4] Building level 5
Creating AMGLevel 
[0] Building level 6
Reconstruction on level 6
[1] Building level 7
[5] Building level 5
[1] Building level 8
Creating AMGLevel 
[0] Building level 7
Reconstruction on level 7
[1] Building level 9
[4] Building level 6
[1] Building level 10
[1] Building level 11
[1] Building level 12
[1] Building level 13
[1] Building level 14
Creating AMGLevel 
[0] Building level 8
Reconstruction on level 8
Creating AMGLevel 
[0] Building level 9
Reconstruction on level 9
[5] Building level 6
Creating AMGLevel 
[0] Building level 10
Reconstruction on level 10
Creating AMGLevel 
[0] Building level 11
Reconstruction on level 11
[4] Building level 7
Creating AMGLevel 
[0] Building level 12
Reconstruction on level 12
Creating AMGLevel 
[0] Building level 13
Reconstruction on level 13
Creating AMGLevel 
[0] Building level 14
Reconstruction on level 14
Creating AMGLevel 
14 Level construction complete
[4] Building level 8
[5] Building level 7
[4] Building level 9
[4] Building level 10
[4] Building level 11
[5] Building level 8
[4] Building level 12
[4] Building level 13
[4] Building level 14
[5] Building level 9
[5] Building level 10
[5] Building level 11
[5] Building level 12
[5] Building level 13
[5] Building level 14
GPU: 26 iters: 4.9543 s: 2.28899 GB/s
PCGAMG:  Solving for pd, Initial residual = 0.0046311, Final residual = 0.000187734, No Iterations 26
[2] Building level 0
[1] Building level 0
[0] Building level 0
[4] Building level 0
[3] Building level 0
[5] Building level 0
[1] Building level 1
[4] Building level 1
[0] Building level 1
[2] Building level 1
[5] Building level 1
[3] Building level 1
[1] Building level 2
[4] Building level 2
[0] Building level 2
[2] Building level 2
[5] Building level 2
[3] Building level 2
[1] Building level 3
[4] Building level 3
[2] Building level 3
[0] Building level 3
[3] Building level 3
[5] Building level 3
[1] Building level 4
[2] Building level 4
[0] Building level 4
[4] Building level 4
[3] Building level 4
[5] Building level 4
[1] Building level 5
[2] Building level 5
[0] Building level 5
[1] Building level 6
[3] Building level 5
[4] Building level 5
[1] Building level 7
[2] Building level 6
[0] Building level 6
[1] Building level 8
[5] Building level 5
[1] Building level 9
[1] Building level 10
[1] Building level 11
[1] Building level 12
[1] Building level 13
[1] Building level 14
[3] Building level 6
[0] Building level 7
[2] Building level 7
[4] Building level 6
[0] Building level 8
[2] Building level 8
[0] Building level 9
[2] Building level 9
[0] Building level 10
[3] Building level 7
[0] Building level 11
[2] Building level 10
[0] Building level 12
[0] Building level 13
[0] Building level 14
[2] Building level 11
14 Level construction complete
[4] Building level 7
[2] Building level 12
[2] Building level 13
[2] Building level 14
[3] Building level 8
[5] Building level 6
[4] Building level 8
[3] Building level 9
[3] Building level 10
[3] Building level 11
[4] Building level 9
[3] Building level 12
[3] Building level 13
[3] Building level 14
[4] Building level 10
[4] Building level 11
[4] Building level 12
[4] Building level 13
[4] Building level 14
[5] Building level 7
[5] Building level 8
[5] Building level 9
[5] Building level 10
[5] Building level 11
[5] Building level 12
[5] Building level 13
[5] Building level 14
GPU: 50 iters: 9.34031 s: 2.33486 GB/s
PCGAMG:  Solving for pd, Initial residual = 0.00390177, Final residual = 0.000201006, No Iterations 50
[1] Building level 0
[2] Building level 0
[0] Building level 0
[4] Building level 0
[3] Building level 0
[5] Building level 0
[1] Building level 1
[4] Building level 1
[0] Building level 1
[2] Building level 1
[5] Building level 1
[3] Building level 1
[1] Building level 2
[4] Building level 2
[0] Building level 2
[2] Building level 2
[5] Building level 2
[3] Building level 2
[1] Building level 3
[4] Building level 3
[2] Building level 3
[0] Building level 3
[3] Building level 3
[5] Building level 3
[1] Building level 4
[2] Building level 4
[0] Building level 4
[3] Building level 4
[4] Building level 4
[5] Building level 4
[1] Building level 5
[2] Building level 5
[0] Building level 5
[3] Building level 5
[1] Building level 6
[4] Building level 5
[1] Building level 7
[0] Building level 6
[2] Building level 6
[1] Building level 8
[5] Building level 5
[1] Building level 9
[1] Building level 10
[3] Building level 6
[1] Building level 11
[1] Building level 12
[1] Building level 13
[1] Building level 14
[0] Building level 7
[4] Building level 6
[2] Building level 7
[0] Building level 8
[0] Building level 9
[3] Building level 7
[2] Building level 8
[0] Building level 10
[0] Building level 11
[0] Building level 12
[0] Building level 13
[0] Building level 14
[2] Building level 9
14 Level construction complete
[4] Building level 7
[2] Building level 10
[2] Building level 11
[3] Building level 8
[2] Building level 12
[2] Building level 13
[2] Building level 14
[5] Building level 6
[3] Building level 9
[4] Building level 8
[3] Building level 10
[3] Building level 11
[3] Building level 12
[3] Building level 13
[3] Building level 14
[4] Building level 9
[4] Building level 10
[4] Building level 11
[4] Building level 12
[4] Building level 13
[4] Building level 14
[5] Building level 7
[5] Building level 8
[5] Building level 9
[5] Building level 10
[5] Building level 11
[5] Building level 12
[5] Building level 13
[5] Building level 14
GPU: 50 iters: 9.29974 s: 2.34504 GB/s
PCGAMG:  Solving for pd, Initial residual = 0.0035119, Final residual = 4.28867e-05, No Iterations 50
time step continuity errors : sum local = 4.32777e-08, global = -4.1264e-08, cumulative = -4.1264e-08
ExecutionTime = 147.17 s  ClockTime = 162 s

Courant Number mean: 1.35363e-05 max: 0.220051 velocity magnitude: 1.71914
Time = 0.003

MULES: Solving for alpha1
Liquid phase volume fraction = 0.00275424  Min(alpha1) = -7.65984e-31  Max(alpha1) = 1
MULES: Solving for alpha1
Liquid phase volume fraction = 0.00275426  Min(alpha1) = -1.00954e-30  Max(alpha1) = 1
[2] Building level 0
[1] Building level 0
[0] Building level 0
[3] Building level 0
[4] Building level 0
[5] Building level 0
[1] Building level 1
[4] Building level 1
[2] Building level 1
[0] Building level 1
Reconstruction on level 1
[5] Building level 1
[3] Building level 1
[4] Building level 2
[2] Building level 2
[3] Building level 2
[2] Building level 3
[3] Building level 3
[2] Building level 4
[3] Building level 4
[4] Building level 3
[2] Building level 5
[3] Building level 5
Creating AMGLevel 
[1] Building level 2
[0] Building level 2
Reconstruction on level 2
[5] Building level 2
[2] Building level 6
[3] Building level 6
[4] Building level 4
[2] Building level 7
[3] Building level 7
[2] Building level 8
[3] Building level 8
[2] Building level 9
[3] Building level 9
[2] Building level 10
[3] Building level 10
[2] Building level 11
[2] Building level 12
[3] Building level 11
[2] Building level 13
[3] Building level 12
[2] Building level 14
[3] Building level 13
[3] Building level 14
[4] Building level 5
Creating AMGLevel 
[0] Building level 3
Reconstruction on level 3
[1] Building level 3
[5] Building level 3
[4] Building level 6
[4] Building level 7
[4] Building level 8
[4] Building level 9
[4] Building level 10
[4] Building level 11
[4] Building level 12
[4] Building level 13
[4] Building level 14
Creating AMGLevel 
[0] Building level 4
Reconstruction on level 4
[1] Building level 4
[5] Building level 4
Creating AMGLevel 
[0] Building level 5
Reconstruction on level 5
[1] Building level 5
[5] Building level 5
Creating AMGLevel 
[0] Building level 6
Reconstruction on level 6
[1] Building level 6
[5] Building level 6
Creating AMGLevel 
[1] Building level 7
[0] Building level 7
Reconstruction on level 7
[1] Building level 8
Creating AMGLevel 
[0] Building level 8
Reconstruction on level 8
[5] Building level 7
[1] Building level 9
Creating AMGLevel 
[0] Building level 9
Reconstruction on level 9
Creating AMGLevel 
[0] Building level 10
Reconstruction on level 10
[1] Building level 10
Creating AMGLevel 
[0] Building level 11
Reconstruction on level 11
[1] Building level 11
Creating AMGLevel 
[0] Building level 12
Reconstruction on level 12
[1] Building level 12
Creating AMGLevel 
[0] Building level 13
Reconstruction on level 13
[1] Building level 13
[5] Building level 8
Creating AMGLevel 
[0] Building level 14
Reconstruction on level 14
[1] Building level 14
Creating AMGLevel 
14 Level construction complete
[5] Building level 9
[5] Building level 10
[5] Building level 11
[5] Building level 12
[5] Building level 13
[5] Building level 14
GPU: 18 iters: 3.43276 s: 2.28708 GB/s
PCGAMG:  Solving for pd, Initial residual = 0.00754788, Final residual = 0.000302684, No Iterations 18
[2] Building level 0
[1] Building level 0
[0] Building level 0
[3] Building level 0
[4] Building level 0
[5] Building level 0
[1] Building level 1
[4] Building level 1
[0] Building level 1
[2] Building level 1
[5] Building level 1
[3] Building level 1
[1] Building level 2
[4] Building level 2
[2] Building level 2
[0] Building level 2
[5] Building level 2
[3] Building level 2
[1] Building level 3
[4] Building level 3
[2] Building level 3
[0] Building level 3
[3] Building level 3
[5] Building level 3
[1] Building level 4
[2] Building level 4
[0] Building level 4
[3] Building level 4
[4] Building level 4
[5] Building level 4
[1] Building level 5
[0] Building level 5
[2] Building level 5
[3] Building level 5
[4] Building level 5
[1] Building level 6
[5] Building level 5
[0] Building level 6
[3] Building level 6
[1] Building level 7
[2] Building level 6
[4] Building level 6
[1] Building level 8
[0] Building level 7
[3] Building level 7
[1] Building level 9
[1] Building level 10
[1] Building level 11
[1] Building level 12
[2] Building level 7
[1] Building level 13
[1] Building level 14
[0] Building level 8
[3] Building level 8
[4] Building level 7
[0] Building level 9
[5] Building level 6
[3] Building level 9
[2] Building level 8
[0] Building level 10
[0] Building level 11
[3] Building level 10
[0] Building level 12
[0] Building level 13
[3] Building level 11
[0] Building level 14
14 Level construction complete
[3] Building level 12
[3] Building level 13
[2] Building level 9
[3] Building level 14
[4] Building level 8
[2] Building level 10
[2] Building level 11
[2] Building level 12
[2] Building level 13
[2] Building level 14
[4] Building level 9
[4] Building level 10
[4] Building level 11
[5] Building level 7
[4] Building level 12
[4] Building level 13
[4] Building level 14
[5] Building level 8
[5] Building level 9
[5] Building level 10
[5] Building level 11
[5] Building level 12
[5] Building level 13
[5] Building level 14
GPU: 50 iters: 9.25411 s: 2.35661 GB/s
PCGAMG:  Solving for pd, Initial residual = 0.00509547, Final residual = 0.00536344, No Iterations 50
[2] Building level 0
[1] Building level 0
[0] Building level 0
[3] Building level 0
[4] Building level 0
[5] Building level 0
[1] Building level 1
[4] Building level 1
[0] Building level 1
[2] Building level 1
[5] Building level 1
[3] Building level 1
[1] Building level 2
[4] Building level 2
[2] Building level 2
[0] Building level 2
[5] Building level 2
[3] Building level 2
[2] Building level 3
[1] Building level 3
[4] Building level 3
[0] Building level 3
[3] Building level 3
[5] Building level 3
[2] Building level 4
[1] Building level 4
[0] Building level 4
[3] Building level 4
[4] Building level 4
[5] Building level 4
[2] Building level 5
[1] Building level 5
[0] Building level 5
[3] Building level 5
[2] Building level 6
[1] Building level 6
[0] Building level 6
[4] Building level 5
[2] Building level 7
[5] Building level 5
[3] Building level 6
[1] Building level 7
[2] Building level 8
[0] Building level 7
[2] Building level 9
[1] Building level 8
[2] Building level 10
[2] Building level 11
[2] Building level 12
[0] Building level 8
[2] Building level 13
[2] Building level 14
[1] Building level 9
[3] Building level 7
[1] Building level 10
[0] Building level 9
[1] Building level 11
[1] Building level 12
[1] Building level 13
[1] Building level 14
[0] Building level 10
[0] Building level 11
[0] Building level 12
[0] Building level 13
[0] Building level 14
14 Level construction complete
[4] Building level 6
[3] Building level 8
[5] Building level 6
[3] Building level 9
[3] Building level 10
[3] Building level 11
[3] Building level 12
[3] Building level 13
[3] Building level 14
[4] Building level 7
[5] Building level 7
[4] Building level 8
[4] Building level 9
[5] Building level 8
[4] Building level 10
[4] Building level 11
[4] Building level 12
[4] Building level 13
[5] Building level 9
[4] Building level 14
[5] Building level 10
[5] Building level 11
[5] Building level 12
[5] Building level 13
[5] Building level 14
GPU: 50 iters: 9.25571 s: 2.3562 GB/s
PCGAMG:  Solving for pd, Initial residual = 0.0108856, Final residual = 8.53097e-05, No Iterations 50
time step continuity errors : sum local = 2.63925e-08, global = -2.23556e-08, cumulative = -6.36195e-08
ExecutionTime = 200.19 s  ClockTime = 216 s

Courant Number mean: 1.6327e-05 max: 0.132383 velocity magnitude: 1.03424
Time = 0.004

MULES: Solving for alpha1
Liquid phase volume fraction = 0.00275427  Min(alpha1) = -5.66777e-30  Max(alpha1) = 1
MULES: Solving for alpha1
Liquid phase volume fraction = 0.00275428  Min(alpha1) = -9.66101e-30  Max(alpha1) = 1
[0] Building level 0
[2] Building level 0
[1] Building level 0
[3] Building level 0
[5] Building level 0
[4] Building level 0
[1] Building level 1
[4] Building level 1
[0] Building level 1
Reconstruction on level 1
[5] Building level 1
[2] Building level 1
[3] Building level 1
[2] Building level 2
[5] Building level 2
[3] Building level 2
[2] Building level 3
[3] Building level 3
[2] Building level 4
[3] Building level 4
[5] Building level 3
[2] Building level 5
[3] Building level 5
Creating AMGLevel 
[0] Building level 2
Reconstruction on level 2
[1] Building level 2
[4] Building level 2
[2] Building level 6
[3] Building level 6
[5] Building level 4
[2] Building level 7
[3] Building level 7
[2] Building level 8
[3] Building level 8
[2] Building level 9
[3] Building level 9
[2] Building level 10
[2] Building level 11
[2] Building level 12
[3] Building level 10
[2] Building level 13
[3] Building level 11
[2] Building level 14
[3] Building level 12
[3] Building level 13
[3] Building level 14
[5] Building level 5
Creating AMGLevel 
[0] Building level 3
Reconstruction on level 3
[1] Building level 3
[4] Building level 3
[5] Building level 6
[5] Building level 7
[5] Building level 8
[5] Building level 9
[5] Building level 10
[5] Building level 11
[5] Building level 12
[5] Building level 13
[5] Building level 14
Creating AMGLevel 
[0] Building level 4
Reconstruction on level 4
[1] Building level 4
[4] Building level 4
Creating AMGLevel 
[0] Building level 5
Reconstruction on level 5
[1] Building level 5
[4] Building level 5
Creating AMGLevel 
[1] Building level 6
[0] Building level 6
Reconstruction on level 6
[4] Building level 6
Creating AMGLevel 
[1] Building level 7
[0] Building level 7
Reconstruction on level 7
[4] Building level 7
Creating AMGLevel 
[1] Building level 8
[0] Building level 8
Reconstruction on level 8
[4] Building level 8
Creating AMGLevel 
[1] Building level 9
[0] Building level 9
Reconstruction on level 9
[1] Building level 10
Creating AMGLevel 
[0] Building level 10
Reconstruction on level 10
[4] Building level 9
[1] Building level 11
Creating AMGLevel 
[0] Building level 11
Reconstruction on level 11
[1] Building level 12
Creating AMGLevel 
[4] Building level 10
[0] Building level 12
Reconstruction on level 12
[1] Building level 13
Creating AMGLevel 
[0] Building level 13
Reconstruction on level 13
[4] Building level 11
[1] Building level 14
Creating AMGLevel 
[0] Building level 14
Reconstruction on level 14
Creating AMGLevel 
14 Level construction complete
[4] Building level 12
[4] Building level 13
[4] Building level 14
GPU: 28 iters: 5.33416 s: 2.28952 GB/s
PCGAMG:  Solving for pd, Initial residual = 0.00955246, Final residual = 0.00035275, No Iterations 28
[2] Building level 0
[1] Building level 0
[0] Building level 0
[5] Building level 0
[3] Building level 0
[4] Building level 0
[4] Building level 1
[1] Building level 1
[5] Building level 1
[3] Building level 1
[0] Building level 1
[2] Building level 1
[4] Building level 2
[1] Building level 2
[0] Building level 2
[2] Building level 2
[5] Building level 2
[3] Building level 2
[4] Building level 3
[3] Building level 3
[5] Building level 3
[0] Building level 3
[2] Building level 3
[1] Building level 3
[3] Building level 4
[4] Building level 4
[0] Building level 4
[2] Building level 4
[1] Building level 4
[5] Building level 4
[3] Building level 5
[4] Building level 5
[0] Building level 5
[2] Building level 5
[1] Building level 5
[5] Building level 5
[3] Building level 6
[4] Building level 6
[0] Building level 6
[2] Building level 6
[1] Building level 6
[3] Building level 7
[5] Building level 6
[4] Building level 7
[0] Building level 7
[3] Building level 8
[2] Building level 7
[3] Building level 9
[4] Building level 8
[3] Building level 10
[0] Building level 8
[1] Building level 7
[3] Building level 11
[3] Building level 12
[3] Building level 13
[2] Building level 8
[3] Building level 14
[4] Building level 9
[0] Building level 9
[5] Building level 7
[4] Building level 10
[2] Building level 9
[4] Building level 11
[4] Building level 12
[0] Building level 10
[4] Building level 13
[4] Building level 14
[2] Building level 10
[0] Building level 11
[1] Building level 8
[0] Building level 12
[0] Building level 13
[2] Building level 11
[0] Building level 14
14 Level construction complete
[2] Building level 12
[2] Building level 13
[2] Building level 14
[5] Building level 8
[1] Building level 9
[1] Building level 10
[1] Building level 11
[1] Building level 12
[5] Building level 9
[1] Building level 13
[1] Building level 14
[5] Building level 10
[5] Building level 11
[5] Building level 12
[5] Building level 13
[5] Building level 14
GPU: 18 iters: 3.50026 s: 2.24298 GB/s
PCGAMG:  Solving for pd, Initial residual = 0.00716099, Final residual = 0.000338479, No Iterations 18
[2] Building level 0
[1] Building level 0
[0] Building level 0
[4] Building level 0
[3] Building level 0
[5] Building level 0
[4] Building level 1
[1] Building level 1
[5] Building level 1
[3] Building level 1
[0] Building level 1
[2] Building level 1
[4] Building level 2
[0] Building level 2
[2] Building level 2
[5] Building level 2
[3] Building level 2
[1] Building level 2
[4] Building level 3
[3] Building level 3
[2] Building level 3
[5] Building level 3
[0] Building level 3
[1] Building level 3
[3] Building level 4
[2] Building level 4
[0] Building level 4
[4] Building level 4
[5] Building level 4
[1] Building level 4
[3] Building level 5
[2] Building level 5
[0] Building level 5
[4] Building level 5
[5] Building level 5
[1] Building level 5
[3] Building level 6
[2] Building level 6
[0] Building level 6
[3] Building level 7
[2] Building level 7
[4] Building level 6
[5] Building level 6
[3] Building level 8
[0] Building level 7
[2] Building level 8
[1] Building level 6
[3] Building level 9
[2] Building level 9
[3] Building level 10
[3] Building level 11
[3] Building level 12
[2] Building level 10
[3] Building level 13
[0] Building level 8
[3] Building level 14
[2] Building level 11
[2] Building level 12
[2] Building level 13
[2] Building level 14
[5] Building level 7
[4] Building level 7
[0] Building level 9
[0] Building level 10
[0] Building level 11
[0] Building level 12
[0] Building level 13
[0] Building level 14
14 Level construction complete
[5] Building level 8
[1] Building level 7
[4] Building level 8
[5] Building level 9
[5] Building level 10
[4] Building level 9
[5] Building level 11
[5] Building level 12
[5] Building level 13
[5] Building level 14
[4] Building level 10
[1] Building level 8
[4] Building level 11
[4] Building level 12
[4] Building level 13
[4] Building level 14
[1] Building level 9
[1] Building level 10
[1] Building level 11
[1] Building level 12
[1] Building level 13
[1] Building level 14
GPU: 50 iters: 9.4129 s: 2.31685 GB/s
PCGAMG:  Solving for pd, Initial residual = 0.00672017, Final residual = 0.0052282, No Iterations 50
time step continuity errors : sum local = 2.56056e-07, global = -1.05318e-08, cumulative = -7.41513e-08
ExecutionTime = 249.83 s  ClockTime = 267 s

Courant Number mean: 2.03374e-05 max: 0.0775152 velocity magnitude: 0.605587
Time = 0.005

MULES: Solving for alpha1
Liquid phase volume fraction = 0.00275429  Min(alpha1) = -1.22973e-30  Max(alpha1) = 1
MULES: Solving for alpha1
Liquid phase volume fraction = 0.00275429  Min(alpha1) = -5.32087e-31  Max(alpha1) = 1
[2] Building level 0
[1] Building level 0
[0] Building level 0
[5] Building level 0
[4] Building level 0
[3] Building level 0
[4] Building level 1
[1] Building level 1
[5] Building level 1
[3] Building level 1
[0] Building level 1
Reconstruction on level 1
[2] Building level 1
[2] Building level 2
[3] Building level 2
[2] Building level 3
[3] Building level 3
[3] Building level 4
[2] Building level 4
[3] Building level 5
[2] Building level 5
[4] Building level 2
[5] Building level 2
Creating AMGLevel 
[1] Building level 2
[0] Building level 2
Reconstruction on level 2
[3] Building level 6
[2] Building level 6
[3] Building level 7
[2] Building level 7
[3] Building level 8
[2] Building level 8
[3] Building level 9
[2] Building level 9
[3] Building level 10
[2] Building level 10
[3] Building level 11
[2] Building level 11
[3] Building level 12
[2] Building level 12
[3] Building level 13
[2] Building level 13
[3] Building level 14
[2] Building level 14
Creating AMGLevel 
[0] Building level 3
Reconstruction on level 3
[4] Building level 3
[5] Building level 3
[1] Building level 3
Creating AMGLevel 
[0] Building level 4
Reconstruction on level 4
[4] Building level 4
[5] Building level 4
[1] Building level 4
Creating AMGLevel 
[4] Building level 5
[0] Building level 5
Reconstruction on level 5
[5] Building level 5
[1] Building level 5
[4] Building level 6
Creating AMGLevel 
[0] Building level 6
Reconstruction on level 6
[5] Building level 6
[1] Building level 6
[4] Building level 7
Creating AMGLevel 
[0] Building level 7
Reconstruction on level 7
[5] Building level 7
[1] Building level 7
[4] Building level 8
Creating AMGLevel 
[0] Building level 8
Reconstruction on level 8
[5] Building level 8
[4] Building level 9
[1] Building level 8
Creating AMGLevel 
[0] Building level 9
Reconstruction on level 9
[5] Building level 9
[4] Building level 10
[4] Building level 11
Creating AMGLevel 
[0] Building level 10
Reconstruction on level 10
[5] Building level 10
[4] Building level 12
[1] Building level 9
Creating AMGLevel 
[0] Building level 11
Reconstruction on level 11
[4] Building level 13
[5] Building level 11
Creating AMGLevel 
[0] Building level 12
Reconstruction on level 12
[4] Building level 14
[5] Building level 12
Creating AMGLevel 
[0] Building level 13
Reconstruction on level 13
[1] Building level 10
[5] Building level 13
Creating AMGLevel 
[0] Building level 14
Reconstruction on level 14
Creating AMGLevel 
[5] Building level 14
14 Level construction complete
[1] Building level 11
[1] Building level 12
[1] Building level 13
[1] Building level 14
GPU: 23 iters: 4.25366 s: 2.3584 GB/s
PCGAMG:  Solving for pd, Initial residual = 0.0198368, Final residual = 0.000980156, No Iterations 23
[1] Building level 0
[2] Building level 0
[0] Building level 0
[3] Building level 0
[4] Building level 0
[5] Building level 0
[4] Building level 1
[1] Building level 1
[5] Building level 1
[3] Building level 1
[0] Building level 1
[2] Building level 1
[4] Building level 2
[1] Building level 2
[0] Building level 2
[2] Building level 2
[5] Building level 2
[3] Building level 2
[4] Building level 3
[1] Building level 3
[3] Building level 3
[2] Building level 3
[5] Building level 3
[0] Building level 3
[4] Building level 4
[3] Building level 4
[1] Building level 4
[2] Building level 4
[0] Building level 4
[5] Building level 4
[4] Building level 5
[3] Building level 5
[1] Building level 5
[2] Building level 5
[0] Building level 5
[5] Building level 5
[4] Building level 6
[3] Building level 6
[1] Building level 6
[2] Building level 6
[4] Building level 7
[3] Building level 7
[0] Building level 6
[4] Building level 8
[1] Building level 7
[2] Building level 7
[5] Building level 6
[4] Building level 9
[3] Building level 8
[4] Building level 10
[4] Building level 11
[4] Building level 12
[4] Building level 13
[4] Building level 14
[1] Building level 8
[2] Building level 8
[3] Building level 9
[3] Building level 10
[3] Building level 11
[1] Building level 9
[3] Building level 12
[2] Building level 9
[3] Building level 13
[3] Building level 14
[0] Building level 7
[1] Building level 10
[2] Building level 10
[1] Building level 11
[2] Building level 11
[1] Building level 12
[1] Building level 13
[5] Building level 7
[1] Building level 14
[2] Building level 12
[2] Building level 13
[2] Building level 14
[0] Building level 8
[5] Building level 8
[0] Building level 9
[5] Building level 9
[0] Building level 10
[0] Building level 11
[5] Building level 10
[0] Building level 12
[0] Building level 13
[0] Building level 14
14 Level construction complete
[5] Building level 11
[5] Building level 12
[5] Building level 13
[5] Building level 14
GPU: 50 iters: 9.0044 s: 2.42196 GB/s
PCGAMG:  Solving for pd, Initial residual = 0.00766302, Final residual = 0.00896407, No Iterations 50
[2] Building level 0
[1] Building level 0
[0] Building level 0
[4] Building level 0
[3] Building level 0
[5] Building level 0
[4] Building level 1
[1] Building level 1
[3] Building level 1
[5] Building level 1
[2] Building level 1
[0] Building level 1
[4] Building level 2
[1] Building level 2
[0] Building level 2
[5] Building level 2
[3] Building level 2
[2] Building level 2
[4] Building level 3
[1] Building level 3
[3] Building level 3
[5] Building level 3
[2] Building level 3
[0] Building level 3
[3] Building level 4
[1] Building level 4
[4] Building level 4
[2] Building level 4
[5] Building level 4
[0] Building level 4
[3] Building level 5
[1] Building level 5
[4] Building level 5
[2] Building level 5
[5] Building level 5
[0] Building level 5
[3] Building level 6
[1] Building level 6
[4] Building level 6
[2] Building level 6
[3] Building level 7
[5] Building level 6
[3] Building level 8
[4] Building level 7
[0] Building level 6
[1] Building level 7
[3] Building level 9
[3] Building level 10
[2] Building level 7
[4] Building level 8
[3] Building level 11
[3] Building level 12
[3] Building level 13
[3] Building level 14
[1] Building level 8
[4] Building level 9
[5] Building level 7
[1] Building level 9
[4] Building level 10
[2] Building level 8
[4] Building level 11
[4] Building level 12
[4] Building level 13
[0] Building level 7
[1] Building level 10
[4] Building level 14
[1] Building level 11
[1] Building level 12
[1] Building level 13
[1] Building level 14
[2] Building level 9
[2] Building level 10
[5] Building level 8
[2] Building level 11
[2] Building level 12
[2] Building level 13
[0] Building level 8
[2] Building level 14
[5] Building level 9
[5] Building level 10
[0] Building level 9
[5] Building level 11
[5] Building level 12
[5] Building level 13
[5] Building level 14
[0] Building level 10
[0] Building level 11
[0] Building level 12
[0] Building level 13
[0] Building level 14
14 Level construction complete
GPU: 50 iters: 9.01804 s: 2.4183 GB/s
PCGAMG:  Solving for pd, Initial residual = 0.0157472, Final residual = 0.000650704, No Iterations 50
time step continuity errors : sum local = 3.36234e-08, global = -2.48187e-09, cumulative = -7.66332e-08
ExecutionTime = 303.75 s  ClockTime = 322 s

Courant Number mean: 2.43848e-05 max: 0.0293545 velocity magnitude: 0.30668
Time = 0.006

MULES: Solving for alpha1
Liquid phase volume fraction = 0.00275429  Min(alpha1) = -1.388e-30  Max(alpha1) = 1
MULES: Solving for alpha1
Liquid phase volume fraction = 0.00275429  Min(alpha1) = -1.64122e-30  Max(alpha1) = 1
[0] Building level 0
[1] Building level 0
[2] Building level 0
[4] Building level 0
[5] Building level 0
[3] Building level 0
[4] Building level 1
[1] Building level 1
[5] Building level 1
[3] Building level 1
[0] Building level 1
Reconstruction on level 1
[2] Building level 1
[2] Building level 2
[3] Building level 2
[3] Building level 3
[2] Building level 3
[3] Building level 4
[2] Building level 4
[3] Building level 5
[2] Building level 5
Creating AMGLevel 
[4] Building level 2
[0] Building level 2
Reconstruction on level 2
[5] Building level 2
[1] Building level 2
[3] Building level 6
[2] Building level 6
[3] Building level 7
[2] Building level 7
[3] Building level 8
[2] Building level 8
[3] Building level 9
[2] Building level 9
[3] Building level 10
[2] Building level 10
[3] Building level 11
[3] Building level 12
[2] Building level 11
[3] Building level 13
[2] Building level 12
[3] Building level 14
[2] Building level 13
[2] Building level 14
[4] Building level 3
[5] Building level 3
Creating AMGLevel 
[0] Building level 3
Reconstruction on level 3
[1] Building level 3
[4] Building level 4
[5] Building level 4
Creating AMGLevel 
[0] Building level 4
Reconstruction on level 4
[1] Building level 4
[4] Building level 5
[5] Building level 5
Creating AMGLevel 
[0] Building level 5
Reconstruction on level 5
[1] Building level 5
[4] Building level 6
[5] Building level 6
Creating AMGLevel 
[0] Building level 6
Reconstruction on level 6
[1] Building level 6
[4] Building level 7
[5] Building level 7
[4] Building level 8
Creating AMGLevel 
[0] Building level 7
Reconstruction on level 7
[4] Building level 9
[1] Building level 7
[5] Building level 8
[4] Building level 10
Creating AMGLevel 
[0] Building level 8
Reconstruction on level 8
[4] Building level 11
[4] Building level 12
[5] Building level 9
[4] Building level 13
[4] Building level 14
[1] Building level 8
[5] Building level 10
Creating AMGLevel 
[0] Building level 9
Reconstruction on level 9
[5] Building level 11
[5] Building level 12
Creating AMGLevel 
[0] Building level 10
Reconstruction on level 10
[5] Building level 13
[5] Building level 14
[1] Building level 9
Creating AMGLevel 
[0] Building level 11
Reconstruction on level 11
Creating AMGLevel 
[0] Building level 12
Reconstruction on level 12
Creating AMGLevel 
[0] Building level 13
Reconstruction on level 13
[1] Building level 10
Creating AMGLevel 
[0] Building level 14
Reconstruction on level 14
Creating AMGLevel 
14 Level construction complete
[1] Building level 11
[1] Building level 12
[1] Building level 13
[1] Building level 14
GPU: 39 iters: 7.08474 s: 2.401 GB/s
PCGAMG:  Solving for pd, Initial residual = 0.0218372, Final residual = 0.00102087, No Iterations 39
[2] Building level 0
[1] Building level 0
[0] Building level 0
[5] Building level 0
[4] Building level 0
[3] Building level 0
[4] Building level 1
[1] Building level 1
[5] Building level 1
[3] Building level 1
[0] Building level 1
[2] Building level 1
[4] Building level 2
[0] Building level 2
[2] Building level 2
[5] Building level 2
[1] Building level 2
[3] Building level 2
[4] Building level 3
[3] Building level 3
[0] Building level 3
[5] Building level 3
[2] Building level 3
[1] Building level 3
[2] Building level 4
[3] Building level 4
[4] Building level 4
[1] Building level 4
[5] Building level 4
[0] Building level 4
[2] Building level 5
[4] Building level 5
[3] Building level 5
[1] Building level 5
[5] Building level 5
[0] Building level 5
[2] Building level 6
[3] Building level 6
[4] Building level 6
[1] Building level 6
[2] Building level 7
[5] Building level 6
[0] Building level 6
[2] Building level 8
[3] Building level 7
[4] Building level 7
[2] Building level 9
[1] Building level 7
[2] Building level 10
[5] Building level 7
[2] Building level 11
[3] Building level 8
[4] Building level 8
[2] Building level 12
[2] Building level 13
[2] Building level 14
[0] Building level 7
[3] Building level 9
[4] Building level 9
[1] Building level 8
[3] Building level 10
[5] Building level 8
[4] Building level 10
[3] Building level 11
[4] Building level 11
[3] Building level 12
[3] Building level 13
[4] Building level 12
[3] Building level 14
[4] Building level 13
[4] Building level 14
[0] Building level 8
[1] Building level 9
[5] Building level 9
[1] Building level 10
[5] Building level 10
[1] Building level 11
[0] Building level 9
[5] Building level 11
[1] Building level 12
[5] Building level 12
[1] Building level 13
[5] Building level 13
[1] Building level 14
[5] Building level 14
[0] Building level 10
[0] Building level 11
[0] Building level 12
[0] Building level 13
[0] Building level 14
14 Level construction complete
GPU: 28 iters: 5.11693 s: 2.38671 GB/s
PCGAMG:  Solving for pd, Initial residual = 0.00818842, Final residual = 0.000345514, No Iterations 28
[0] Building level 0
[2] Building level 0
[1] Building level 0
[3] Building level 0
[4] Building level 0
[5] Building level 0
[1] Building level 1
[4] Building level 1
[0] Building level 1
[2] Building level 1
[5] Building level 1
[3] Building level 1
[0] Building level 2
[1] Building level 2
[2] Building level 2
[4] Building level 2
[3] Building level 2
[5] Building level 2
[0] Building level 3
[1] Building level 3
[2] Building level 3
[3] Building level 3
[4] Building level 3
[5] Building level 3
[2] Building level 4
[1] Building level 4
[0] Building level 4
[3] Building level 4
[4] Building level 4
[5] Building level 4
[2] Building level 5
[1] Building level 5
[0] Building level 5
[3] Building level 5
[5] Building level 5
[4] Building level 5
[2] Building level 6
[1] Building level 6
[0] Building level 6
[2] Building level 7
[3] Building level 6
[1] Building level 7
[0] Building level 7
[2] Building level 8
[1] Building level 8
[2] Building level 9
[5] Building level 6
[0] Building level 8
[4] Building level 6
[2] Building level 10
[3] Building level 7
[1] Building level 9
[2] Building level 11
[2] Building level 12
[2] Building level 13
[2] Building level 14
[1] Building level 10
[0] Building level 9
[1] Building level 11
[1] Building level 12
[0] Building level 10
[1] Building level 13
[1] Building level 14
[0] Building level 11
[0] Building level 12
[0] Building level 13
[0] Building level 14
14 Level construction complete
[3] Building level 8
[5] Building level 7
[3] Building level 9
[4] Building level 7
[3] Building level 10
[3] Building level 11
[3] Building level 12
[3] Building level 13
[3] Building level 14
[5] Building level 8
[4] Building level 8
[5] Building level 9
[5] Building level 10
[4] Building level 9
[5] Building level 11
[5] Building level 12
[5] Building level 13
[4] Building level 10
[5] Building level 14
[4] Building level 11
[4] Building level 12
[4] Building level 13
[4] Building level 14
GPU: 50 iters: 8.96626 s: 2.43226 GB/s
PCGAMG:  Solving for pd, Initial residual = 0.00818947, Final residual = 0.00130711, No Iterations 50
time step continuity errors : sum local = 6.19933e-08, global = 9.16512e-12, cumulative = -7.6624e-08
ExecutionTime = 356.64 s  ClockTime = 376 s

Courant Number mean: 2.93144e-05 max: 0.0336543 velocity magnitude: 0.263273
Time = 0.007

MULES: Solving for alpha1
Liquid phase volume fraction = 0.00275429  Min(alpha1) = -3.19134e-30  Max(alpha1) = 1
MULES: Solving for alpha1
Liquid phase volume fraction = 0.00275429  Min(alpha1) = -2.27823e-30  Max(alpha1) = 1
[2] Building level 0
[1] Building level 0
[0] Building level 0
[5] Building level 0
[3] Building level 0
[4] Building level 0
[1] Building level 1
[4] Building level 1
[2] Building level 1
[0] Building level 1
Reconstruction on level 1
[5] Building level 1
[3] Building level 1
[2] Building level 2
[3] Building level 2
[2] Building level 3
[3] Building level 3
[2] Building level 4
[3] Building level 4
[2] Building level 5
[3] Building level 5
[1] Building level 2
Creating AMGLevel 
[0] Building level 2
Reconstruction on level 2
[4] Building level 2
[5] Building level 2
[2] Building level 6
[3] Building level 6
[2] Building level 7
[3] Building level 7
[2] Building level 8
[3] Building level 8
[2] Building level 9
[2] Building level 10
[3] Building level 9
[2] Building level 11
[2] Building level 12
[3] Building level 10
[2] Building level 13
[2] Building level 14
[3] Building level 11
[3] Building level 12
[3] Building level 13
[3] Building level 14
Creating AMGLevel 
[0] Building level 3
Reconstruction on level 3
[1] Building level 3
[4] Building level 3
[5] Building level 3
Creating AMGLevel 
[0] Building level 4
Reconstruction on level 4
[1] Building level 4
[4] Building level 4
[5] Building level 4
Creating AMGLevel 
[0] Building level 5
Reconstruction on level 5
[1] Building level 5
[4] Building level 5
[5] Building level 5
Creating AMGLevel 
[0] Building level 6
Reconstruction on level 6
[1] Building level 6
[4] Building level 6
[5] Building level 6
Creating AMGLevel 
[0] Building level 7
Reconstruction on level 7
[1] Building level 7
Creating AMGLevel 
[0] Building level 8
Reconstruction on level 8
[1] Building level 8
[4] Building level 7
[5] Building level 7
Creating AMGLevel 
[0] Building level 9
Reconstruction on level 9
[1] Building level 9
Creating AMGLevel 
[0] Building level 10
Reconstruction on level 10
[1] Building level 10
Creating AMGLevel 
[0] Building level 11
Reconstruction on level 11
[1] Building level 11
Creating AMGLevel 
[0] Building level 12
Reconstruction on level 12
[4] Building level 8
Creating AMGLevel 
[0] Building level 13
Reconstruction on level 13
[1] Building level 12
Creating AMGLevel 
[0] Building level 14
Reconstruction on level 14
[1] Building level 13
Creating AMGLevel 
14 Level construction complete
[5] Building level 8
[1] Building level 14
[4] Building level 9
[5] Building level 9
[4] Building level 10
[4] Building level 11
[5] Building level 10
[4] Building level 12
[4] Building level 13
[5] Building level 11
[4] Building level 14
[5] Building level 12
[5] Building level 13
[5] Building level 14
GPU: 50 iters: 9.10895 s: 2.39416 GB/s
PCGAMG:  Solving for pd, Initial residual = 0.0221185, Final residual = 0.00601062, No Iterations 50
[1] Building level 0
[2] Building level 0
[0] Building level 0
[3] Building level 0
[4] Building level 0
[5] Building level 0
[1] Building level 1
[2] Building level 1
[0] Building level 1
[4] Building level 1
[5] Building level 1
[3] Building level 1
[2] Building level 2
[1] Building level 2
[0] Building level 2
[4] Building level 2
[5] Building level 2
[3] Building level 2
[2] Building level 3
[1] Building level 3
[0] Building level 3
[4] Building level 3
[3] Building level 3
[5] Building level 3
[2] Building level 4
[1] Building level 4
[3] Building level 4
[4] Building level 4
[0] Building level 4
[5] Building level 4
[2] Building level 5
[1] Building level 5
[3] Building level 5
[2] Building level 6
[1] Building level 6
[4] Building level 5
[0] Building level 5
[2] Building level 7
[5] Building level 5
[2] Building level 8
[1] Building level 7
[2] Building level 9
[3] Building level 6
[2] Building level 10
[2] Building level 11
[2] Building level 12
[2] Building level 13
[2] Building level 14
[1] Building level 8
[1] Building level 9
[1] Building level 10
[1] Building level 11
[4] Building level 6
[1] Building level 12
[1] Building level 13
[1] Building level 14
[0] Building level 6
[3] Building level 7
[5] Building level 6
[3] Building level 8
[4] Building level 7
[3] Building level 9
[0] Building level 7
[3] Building level 10
[3] Building level 11
[5] Building level 7
[3] Building level 12
[3] Building level 13
[4] Building level 8
[3] Building level 14
[0] Building level 8
[4] Building level 9
[4] Building level 10
[5] Building level 8
[0] Building level 9
[4] Building level 11
[4] Building level 12
[4] Building level 13
[4] Building level 14
[0] Building level 10
[0] Building level 11
[5] Building level 9
[0] Building level 12
[0] Building level 13
[0] Building level 14
14 Level construction complete
[5] Building level 10
[5] Building level 11
[5] Building level 12
[5] Building level 13
[5] Building level 14
GPU: 23 iters: 4.28086 s: 2.34341 GB/s
PCGAMG:  Solving for pd, Initial residual = 0.0127993, Final residual = 0.000529979, No Iterations 23
[2] Building level 0
[1] Building level 0
[0] Building level 0
[3] Building level 0
[5] Building level 0
[4] Building level 0
[1] Building level 1
[4] Building level 1
[0] Building level 1
[2] Building level 1
[3] Building level 1
[5] Building level 1
[1] Building level 2
[2] Building level 2
[4] Building level 2
[0] Building level 2
[3] Building level 2
[5] Building level 2
[4] Building level 3
[2] Building level 3
[3] Building level 3
[1] Building level 3
[0] Building level 3
[5] Building level 3
[2] Building level 4
[3] Building level 4
[1] Building level 4
[4] Building level 4
[0] Building level 4
[5] Building level 4
[2] Building level 5
[3] Building level 5
[1] Building level 5
[4] Building level 5
[5] Building level 5
[0] Building level 5
[2] Building level 6
[3] Building level 6
[1] Building level 6
[2] Building level 7
[4] Building level 6
[3] Building level 7
[0] Building level 6
[5] Building level 6
[2] Building level 8
[1] Building level 7
[3] Building level 8
[2] Building level 9
[3] Building level 9
[4] Building level 7
[2] Building level 10
[3] Building level 10
[2] Building level 11
[2] Building level 12
[3] Building level 11
[2] Building level 13
[2] Building level 14
[3] Building level 12
[1] Building level 8
[3] Building level 13
[3] Building level 14
[1] Building level 9
[0] Building level 7
[4] Building level 8
[5] Building level 7
[1] Building level 10
[1] Building level 11
[1] Building level 12
[1] Building level 13
[1] Building level 14
[4] Building level 9
[4] Building level 10
[0] Building level 8
[4] Building level 11
[5] Building level 8
[4] Building level 12
[4] Building level 13
[4] Building level 14
[0] Building level 9
[5] Building level 9
[0] Building level 10
[5] Building level 10
[0] Building level 11
[0] Building level 12
[5] Building level 11
[0] Building level 13
[0] Building level 14
[5] Building level 12
14 Level construction complete
[5] Building level 13
[5] Building level 14
GPU: 50 iters: 9.10117 s: 2.39621 GB/s
PCGAMG:  Solving for pd, Initial residual = 0.00856246, Final residual = 0.000178279, No Iterations 50
time step continuity errors : sum local = 8.59057e-09, global = 1.41913e-10, cumulative = -7.64821e-08
ExecutionTime = 410.53 s  ClockTime = 432 s

Courant Number mean: 3.44027e-05 max: 0.00946895 velocity magnitude: 0.130406
Time = 0.008

MULES: Solving for alpha1
Liquid phase volume fraction = 0.00275429  Min(alpha1) = -5.75892e-30  Max(alpha1) = 1
MULES: Solving for alpha1
Liquid phase volume fraction = 0.00275429  Min(alpha1) = -1.05822e-29  Max(alpha1) = 1
[1] Building level 0
[2] Building level 0
[0] Building level 0
[4] Building level 0
[3] Building level 0
[5] Building level 0
[1] Building level 1
[4] Building level 1
[2] Building level 1
[0] Building level 1
Reconstruction on level 1
[3] Building level 1
[5] Building level 1
[2] Building level 2
[4] Building level 2
[3] Building level 2
[2] Building level 3
[3] Building level 3
[2] Building level 4
[3] Building level 4
[4] Building level 3
[2] Building level 5
[3] Building level 5
Creating AMGLevel 
[0] Building level 2
Reconstruction on level 2
[1] Building level 2
[5] Building level 2
[2] Building level 6
[3] Building level 6
[4] Building level 4
[2] Building level 7
[3] Building level 7
[2] Building level 8
[3] Building level 8
[2] Building level 9
[2] Building level 10
[2] Building level 11
[3] Building level 9
[2] Building level 12
[2] Building level 13
[2] Building level 14
[3] Building level 10
[3] Building level 11
[3] Building level 12
[3] Building level 13
[3] Building level 14
[4] Building level 5
Creating AMGLevel 
[1] Building level 3
[0] Building level 3
Reconstruction on level 3
[5] Building level 3
[4] Building level 6
[4] Building level 7
[4] Building level 8
[4] Building level 9
[4] Building level 10
[4] Building level 11
[4] Building level 12
[4] Building level 13
[4] Building level 14
Creating AMGLevel 
[1] Building level 4
[0] Building level 4
Reconstruction on level 4
[5] Building level 4
Creating AMGLevel 
[1] Building level 5
[0] Building level 5
Reconstruction on level 5
[5] Building level 5
Creating AMGLevel 
[1] Building level 6
[0] Building level 6
Reconstruction on level 6
[5] Building level 6
Creating AMGLevel 
[0] Building level 7
Reconstruction on level 7
[1] Building level 7
Creating AMGLevel 
[0] Building level 8
Reconstruction on level 8
[1] Building level 8
[5] Building level 7
Creating AMGLevel 
[0] Building level 9
Reconstruction on level 9
[1] Building level 9
Creating AMGLevel 
[1] Building level 10
[0] Building level 10
Reconstruction on level 10
[1] Building level 11
Creating AMGLevel 
[0] Building level 11
Reconstruction on level 11
[5] Building level 8
[1] Building level 12
Creating AMGLevel 
[0] Building level 12
Reconstruction on level 12
[1] Building level 13
Creating AMGLevel 
[0] Building level 13
Reconstruction on level 13
[1] Building level 14
Creating AMGLevel 
[0] Building level 14
Reconstruction on level 14
Creating AMGLevel 
14 Level construction complete
[5] Building level 9
[5] Building level 10
[5] Building level 11
[5] Building level 12
[5] Building level 13
[5] Building level 14
GPU: 44 iters: 8.05817 s: 2.3816 GB/s
PCGAMG:  Solving for pd, Initial residual = 0.0227676, Final residual = 0.000952799, No Iterations 44
[2] Building level 0
[1] Building level 0
[0] Building level 0
[4] Building level 0
[3] Building level 0
[5] Building level 0
[1] Building level 1
[4] Building level 1
[0] Building level 1
[2] Building level 1
[5] Building level 1
[3] Building level 1
[1] Building level 2
[2] Building level 2
[0] Building level 2
[4] Building level 2
[5] Building level 2
[3] Building level 2
[1] Building level 3
[2] Building level 3
[0] Building level 3
[4] Building level 3
[3] Building level 3
[5] Building level 3
[1] Building level 4
[2] Building level 4
[0] Building level 4
[3] Building level 4
[4] Building level 4
[5] Building level 4
[1] Building level 5
[2] Building level 5
[3] Building level 5
[0] Building level 5
[1] Building level 6
[4] Building level 5
[2] Building level 6
[5] Building level 5
[1] Building level 7
[3] Building level 6
[0] Building level 6
[1] Building level 8
[2] Building level 7
[1] Building level 9
[1] Building level 10
[1] Building level 11
[2] Building level 8
[4] Building level 6
[1] Building level 12
[1] Building level 13
[1] Building level 14
[3] Building level 7
[2] Building level 9
[0] Building level 7
[2] Building level 10
[2] Building level 11
[2] Building level 12
[2] Building level 13
[2] Building level 14
[5] Building level 6
[3] Building level 8
[4] Building level 7
[0] Building level 8
[3] Building level 9
[3] Building level 10
[0] Building level 9
[3] Building level 11
[3] Building level 12
[3] Building level 13
[3] Building level 14
[0] Building level 10
[0] Building level 11
[4] Building level 8
[0] Building level 12
[0] Building level 13
[0] Building level 14
14 Level construction complete
[5] Building level 7
[4] Building level 9
[4] Building level 10
[4] Building level 11
[4] Building level 12
[4] Building level 13
[4] Building level 14
[5] Building level 8
[5] Building level 9
[5] Building level 10
[5] Building level 11
[5] Building level 12
[5] Building level 13
[5] Building level 14
GPU: 10 iters: 1.9768 s: 2.20643 GB/s
PCGAMG:  Solving for pd, Initial residual = 0.00826332, Final residual = 0.000411296, No Iterations 10
[1] Building level 0
[2] Building level 0
[0] Building level 0
[3] Building level 0
[4] Building level 0
[5] Building level 0
[1] Building level 1
[4] Building level 1
[0] Building level 1
[2] Building level 1
[5] Building level 1
[3] Building level 1
[1] Building level 2
[0] Building level 2
[2] Building level 2
[4] Building level 2
[5] Building level 2
[3] Building level 2
[1] Building level 3
[2] Building level 3
[4] Building level 3
[0] Building level 3
[3] Building level 3
[5] Building level 3
[1] Building level 4
[2] Building level 4
[0] Building level 4
[3] Building level 4
[4] Building level 4
[5] Building level 4
[1] Building level 5
[2] Building level 5
[0] Building level 5
[3] Building level 5
[1] Building level 6
[4] Building level 5
[1] Building level 7
[2] Building level 6
[5] Building level 5
[1] Building level 8
[0] Building level 6
[3] Building level 6
[1] Building level 9
[1] Building level 10
[2] Building level 7
[1] Building level 11
[1] Building level 12
[1] Building level 13
[1] Building level 14
[4] Building level 6
[2] Building level 8
[0] Building level 7
[3] Building level 7
[2] Building level 9
[2] Building level 10
[2] Building level 11
[2] Building level 12
[2] Building level 13
[0] Building level 8
[2] Building level 14
[5] Building level 6
[3] Building level 8
[0] Building level 9
[4] Building level 7
[3] Building level 9
[0] Building level 10
[0] Building level 11
[3] Building level 10
[0] Building level 12
[0] Building level 13
[0] Building level 14
[3] Building level 11
14 Level construction complete
[3] Building level 12
[3] Building level 13
[3] Building level 14
[4] Building level 8
[5] Building level 7
[4] Building level 9
[4] Building level 10
[4] Building level 11
[4] Building level 12
[4] Building level 13
[4] Building level 14
[5] Building level 8
[5] Building level 9
[5] Building level 10
[5] Building level 11
[5] Building level 12
[5] Building level 13
[5] Building level 14
GPU: 50 iters: 9.18321 s: 2.3748 GB/s
PCGAMG:  Solving for pd, Initial residual = 0.00829924, Final residual = 3.1394e-07, No Iterations 50
time step continuity errors : sum local = 1.71422e-10, global = 1.56563e-10, cumulative = -7.63256e-08
ExecutionTime = 461.33 s  ClockTime = 484 s

Courant Number mean: 3.95028e-05 max: 0.00903882 velocity magnitude: 0.140321
Time = 0.009

MULES: Solving for alpha1
Liquid phase volume fraction = 0.00275429  Min(alpha1) = -1.22695e-29  Max(alpha1) = 1
MULES: Solving for alpha1
Liquid phase volume fraction = 0.00275429  Min(alpha1) = -1.85741e-29  Max(alpha1) = 1
[2] Building level 0
[1] Building level 0
[0] Building level 0
[4] Building level 0
[3] Building level 0
[5] Building level 0
[1] Building level 1
[4] Building level 1
[0] Building level 1
Reconstruction on level 1
[2] Building level 1
[5] Building level 1
[3] Building level 1
[2] Building level 2
[4] Building level 2
[3] Building level 2
[2] Building level 3
[3] Building level 3
[2] Building level 4
[3] Building level 4
[4] Building level 3
[2] Building level 5
[3] Building level 5
Creating AMGLevel 
[1] Building level 2
[0] Building level 2
Reconstruction on level 2
[5] Building level 2
[2] Building level 6
[3] Building level 6
[4] Building level 4
[2] Building level 7
[3] Building level 7
[2] Building level 8
[3] Building level 8
[2] Building level 9
[2] Building level 10
[2] Building level 11
[3] Building level 9
[2] Building level 12
[2] Building level 13
[2] Building level 14
[3] Building level 10
[3] Building level 11
[3] Building level 12
[3] Building level 13
[3] Building level 14
[4] Building level 5
[1] Building level 3
Creating AMGLevel 
[0] Building level 3
Reconstruction on level 3
[5] Building level 3
[4] Building level 6
[4] Building level 7
[4] Building level 8
[4] Building level 9
[4] Building level 10
[4] Building level 11
[4] Building level 12
[4] Building level 13
[4] Building level 14
[1] Building level 4
Creating AMGLevel 
[0] Building level 4
Reconstruction on level 4
[5] Building level 4
[1] Building level 5
Creating AMGLevel 
[0] Building level 5
Reconstruction on level 5
[5] Building level 5
[1] Building level 6
Creating AMGLevel 
[0] Building level 6
Reconstruction on level 6
[1] Building level 7
Creating AMGLevel 
[5] Building level 6
[0] Building level 7
Reconstruction on level 7
[1] Building level 8
Creating AMGLevel 
[1] Building level 9
[0] Building level 8
Reconstruction on level 8
[1] Building level 10
[1] Building level 11
Creating AMGLevel 
[0] Building level 9
Reconstruction on level 9
[5] Building level 7
[1] Building level 12
[1] Building level 13
[1] Building level 14
Creating AMGLevel 
[0] Building level 10
Reconstruction on level 10
Creating AMGLevel 
[0] Building level 11
Reconstruction on level 11
Creating AMGLevel 
[0] Building level 12
Reconstruction on level 12
Creating AMGLevel 
[0] Building level 13
Reconstruction on level 13
Creating AMGLevel 
[0] Building level 14
Reconstruction on level 14
Creating AMGLevel 
14 Level construction complete
[5] Building level 8
[5] Building level 9
[5] Building level 10
[5] Building level 11
[5] Building level 12
[5] Building level 13
[5] Building level 14
GPU: 16 iters: 2.98216 s: 2.34014 GB/s
PCGAMG:  Solving for pd, Initial residual = 0.0227613, Final residual = 0.000985506, No Iterations 16
[2] Building level 0
[1] Building level 0
[0] Building level 0
[4] Building level 0
[3] Building level 0
[5] Building level 0
[1] Building level 1
[4] Building level 1
[0] Building level 1
[2] Building level 1
[5] Building level 1
[3] Building level 1
[1] Building level 2
[2] Building level 2
[4] Building level 2
[0] Building level 2
[5] Building level 2
[3] Building level 2
[2] Building level 3
[1] Building level 3
[4] Building level 3
[3] Building level 3
[5] Building level 3
[0] Building level 3
[2] Building level 4
[1] Building level 4
[3] Building level 4
[4] Building level 4
[0] Building level 4
[5] Building level 4
[2] Building level 5
[1] Building level 5
[3] Building level 5
[4] Building level 5
[0] Building level 5
[2] Building level 6
[1] Building level 6
[3] Building level 6
[5] Building level 5
[2] Building level 7
[4] Building level 6
[1] Building level 7
[3] Building level 7
[2] Building level 8
[2] Building level 9
[0] Building level 6
[2] Building level 10
[1] Building level 8
[3] Building level 8
[2] Building level 11
[2] Building level 12
[2] Building level 13
[2] Building level 14
[1] Building level 9
[3] Building level 9
[4] Building level 7
[3] Building level 10
[1] Building level 10
[5] Building level 6
[1] Building level 11
[3] Building level 11
[3] Building level 12
[1] Building level 12
[3] Building level 13
[1] Building level 13
[3] Building level 14
[1] Building level 14
[4] Building level 8
[0] Building level 7
[4] Building level 9
[4] Building level 10
[4] Building level 11
[4] Building level 12
[0] Building level 8
[4] Building level 13
[4] Building level 14
[5] Building level 7
[0] Building level 9
[0] Building level 10
[0] Building level 11
[0] Building level 12
[5] Building level 8
[0] Building level 13
[0] Building level 14
14 Level construction complete
[5] Building level 9
[5] Building level 10
[5] Building level 11
[5] Building level 12
[5] Building level 13
[5] Building level 14
GPU: 7 iters: 1.41658 s: 2.15531 GB/s
PCGAMG:  Solving for pd, Initial residual = 0.00851292, Final residual = 0.000280419, No Iterations 7
[1] Building level 0
[2] Building level 0
[0] Building level 0
[3] Building level 0
[4] Building level 0
[5] Building level 0
[1] Building level 1
[4] Building level 1
[0] Building level 1
[2] Building level 1
[5] Building level 1
[3] Building level 1
[2] Building level 2
[1] Building level 2
[4] Building level 2
[0] Building level 2
[5] Building level 2
[3] Building level 2
[2] Building level 3
[4] Building level 3
[1] Building level 3
[3] Building level 3
[0] Building level 3
[5] Building level 3
[2] Building level 4
[1] Building level 4
[3] Building level 4
[4] Building level 4
[0] Building level 4
[5] Building level 4
[2] Building level 5
[1] Building level 5
[3] Building level 5
[4] Building level 5
[0] Building level 5
[2] Building level 6
[1] Building level 6
[3] Building level 6
[5] Building level 5
[2] Building level 7
[4] Building level 6
[2] Building level 8
[2] Building level 9
[3] Building level 7
[0] Building level 6
[1] Building level 7
[2] Building level 10
[2] Building level 11
[2] Building level 12
[2] Building level 13
[2] Building level 14
[3] Building level 8
[1] Building level 8
[4] Building level 7
[5] Building level 6
[3] Building level 9
[1] Building level 9
[3] Building level 10
[3] Building level 11
[3] Building level 12
[1] Building level 10
[3] Building level 13
[3] Building level 14
[0] Building level 7
[1] Building level 11
[4] Building level 8
[1] Building level 12
[1] Building level 13
[1] Building level 14
[4] Building level 9
[4] Building level 10
[0] Building level 8
[4] Building level 11
[4] Building level 12
[4] Building level 13
[4] Building level 14
[5] Building level 7
[0] Building level 9
[0] Building level 10
[0] Building level 11
[0] Building level 12
[0] Building level 13
[0] Building level 14
14 Level construction complete
[5] Building level 8
[5] Building level 9
[5] Building level 10
[5] Building level 11
[5] Building level 12
[5] Building level 13
[5] Building level 14
GPU: 50 iters: 8.94494 s: 2.43806 GB/s
PCGAMG:  Solving for pd, Initial residual = 0.00841787, Final residual = 8.81096e-05, No Iterations 50
time step continuity errors : sum local = 4.14469e-09, global = 2.78959e-12, cumulative = -7.63228e-08
ExecutionTime = 506.27 s  ClockTime = 530 s

Courant Number mean: 4.46171e-05 max: 0.00971957 velocity magnitude: 0.149328
Time = 0.01

MULES: Solving for alpha1
Liquid phase volume fraction = 0.00275429  Min(alpha1) = -3.04595e-29  Max(alpha1) = 1
MULES: Solving for alpha1
Liquid phase volume fraction = 0.00275429  Min(alpha1) = -2.98422e-29  Max(alpha1) = 1
[2] Building level 0
[1] Building level 0
[0] Building level 0
[3] Building level 0
[4] Building level 0
[5] Building level 0
[1] Building level 1
[4] Building level 1
[0] Building level 1
Reconstruction on level 1
[2] Building level 1
[5] Building level 1
[3] Building level 1
[2] Building level 2
[4] Building level 2
[3] Building level 2
[2] Building level 3
[3] Building level 3
[2] Building level 4
[3] Building level 4
[4] Building level 3
[2] Building level 5
[3] Building level 5
Creating AMGLevel 
[0] Building level 2
Reconstruction on level 2
[1] Building level 2
[5] Building level 2
[2] Building level 6
[3] Building level 6
[4] Building level 4
[2] Building level 7
[3] Building level 7
[2] Building level 8
[3] Building level 8
[2] Building level 9
[2] Building level 10
[3] Building level 9
[2] Building level 11
[2] Building level 12
[3] Building level 10
[2] Building level 13
[2] Building level 14
[3] Building level 11
[3] Building level 12
[3] Building level 13
[3] Building level 14
Creating AMGLevel 
[4] Building level 5
[0] Building level 3
Reconstruction on level 3
[1] Building level 3
[5] Building level 3
[4] Building level 6
[4] Building level 7
[4] Building level 8
[4] Building level 9
[4] Building level 10
[4] Building level 11
[4] Building level 12
[4] Building level 13
[4] Building level 14
Creating AMGLevel 
[0] Building level 4
Reconstruction on level 4
[1] Building level 4
[5] Building level 4
Creating AMGLevel 
[0] Building level 5
Reconstruction on level 5
[1] Building level 5
[5] Building level 5
Creating AMGLevel 
[0] Building level 6
Reconstruction on level 6
[1] Building level 6
Creating AMGLevel 
[0] Building level 7
Reconstruction on level 7
[1] Building level 7
[5] Building level 6
Creating AMGLevel 
[0] Building level 8
Reconstruction on level 8
[1] Building level 8
Creating AMGLevel 
[0] Building level 9
Reconstruction on level 9
[1] Building level 9
Creating AMGLevel 
[5] Building level 7
[0] Building level 10
Reconstruction on level 10
Creating AMGLevel 
[0] Building level 11
Reconstruction on level 11
[1] Building level 10
Creating AMGLevel 
[0] Building level 12
Reconstruction on level 12
Creating AMGLevel 
[0] Building level 13
Reconstruction on level 13
[1] Building level 11
Creating AMGLevel 
[0] Building level 14
Reconstruction on level 14
[1] Building level 12
Creating AMGLevel 
14 Level construction complete
[1] Building level 13
[1] Building level 14
[5] Building level 8
[5] Building level 9
[5] Building level 10
[5] Building level 11
[5] Building level 12
[5] Building level 13
[5] Building level 14
GPU: 26 iters: 4.6899 s: 2.41803 GB/s
PCGAMG:  Solving for pd, Initial residual = 0.0234493, Final residual = 0.000955397, No Iterations 26
[2] Building level 0
[1] Building level 0
[0] Building level 0
[5] Building level 0
[3] Building level 0
[4] Building level 0
[1] Building level 1
[4] Building level 1
[0] Building level 1
[2] Building level 1
[5] Building level 1
[3] Building level 1
[1] Building level 2
[2] Building level 2
[4] Building level 2
[0] Building level 2
[5] Building level 2
[3] Building level 2
[1] Building level 3
[2] Building level 3
[4] Building level 3
[0] Building level 3
[3] Building level 3
[5] Building level 3
[2] Building level 4
[1] Building level 4
[0] Building level 4
[3] Building level 4
[4] Building level 4
[5] Building level 4
[2] Building level 5
[1] Building level 5
[0] Building level 5
[3] Building level 5
[4] Building level 5
[2] Building level 6
[1] Building level 6
[2] Building level 7
[1] Building level 7
[2] Building level 8
[0] Building level 6
[5] Building level 5
[3] Building level 6
[2] Building level 9
[1] Building level 8
[4] Building level 6
[2] Building level 10
[2] Building level 11
[1] Building level 9
[2] Building level 12
[2] Building level 13
[2] Building level 14
[1] Building level 10
[1] Building level 11
[1] Building level 12
[1] Building level 13
[1] Building level 14
[0] Building level 7
[3] Building level 7
[4] Building level 7
[0] Building level 8
[3] Building level 8
[0] Building level 9
[4] Building level 8
[0] Building level 10
[0] Building level 11
[3] Building level 9
[0] Building level 12
[0] Building level 13
[0] Building level 14
14 Level construction complete
[4] Building level 9
[3] Building level 10
[3] Building level 11
[5] Building level 6
[3] Building level 12
[4] Building level 10
[3] Building level 13
[3] Building level 14
[4] Building level 11
[4] Building level 12
[4] Building level 13
[4] Building level 14
[5] Building level 7
[5] Building level 8
[5] Building level 9
[5] Building level 10
[5] Building level 11
[5] Building level 12
[5] Building level 13
[5] Building level 14
GPU: 3 iters: 0.699514 s: 1.87058 GB/s
PCGAMG:  Solving for pd, Initial residual = 0.00848128, Final residual = 0.000393082, No Iterations 3
[1] Building level 0
[2] Building level 0
[0] Building level 0
[4] Building level 0
[3] Building level 0
[5] Building level 0
[1] Building level 1
[4] Building level 1
[5] Building level 1
[0] Building level 1
[2] Building level 1
[3] Building level 1
[1] Building level 2
[2] Building level 2
[4] Building level 2
[0] Building level 2
[5] Building level 2
[3] Building level 2
[1] Building level 3
[2] Building level 3
[4] Building level 3
[3] Building level 3
[0] Building level 3
[5] Building level 3
[1] Building level 4
[2] Building level 4
[3] Building level 4
[4] Building level 4
[0] Building level 4
[5] Building level 4
[1] Building level 5
[2] Building level 5
[3] Building level 5
[4] Building level 5
[0] Building level 5
[1] Building level 6
[2] Building level 6
[3] Building level 6
[5] Building level 5
[1] Building level 7
[2] Building level 7
[2] Building level 8
[1] Building level 8
[4] Building level 6
[0] Building level 6
[3] Building level 7
[2] Building level 9
[1] Building level 9
[2] Building level 10
[1] Building level 10
[2] Building level 11
[1] Building level 11
[2] Building level 12
[1] Building level 12
[2] Building level 13
[1] Building level 13
[2] Building level 14
[1] Building level 14
[3] Building level 8
[3] Building level 9
[4] Building level 7
[3] Building level 10
[0] Building level 7
[3] Building level 11
[3] Building level 12
[3] Building level 13
[3] Building level 14
[5] Building level 6
[4] Building level 8
[0] Building level 8
[4] Building level 9
[0] Building level 9
[4] Building level 10
[0] Building level 10
[4] Building level 11
[4] Building level 12
[0] Building level 11
[4] Building level 13
[4] Building level 14
[0] Building level 12
[0] Building level 13
[0] Building level 14
14 Level construction complete
[5] Building level 7
[5] Building level 8
[5] Building level 9
[5] Building level 10
[5] Building level 11
[5] Building level 12
[5] Building level 13
[5] Building level 14
GPU: 40 iters: 7.14014 s: 2.44346 GB/s
PCGAMG:  Solving for pd, Initial residual = 0.00871714, Final residual = 8.60442e-08, No Iterations 40
time step continuity errors : sum local = 4.61833e-11, global = -4.21836e-11, cumulative = -7.6365e-08
ExecutionTime = 550.25 s  ClockTime = 575 s

End

Finalising parallel run
