 Data for JOB [49683,1] offset 0

 ========================   JOB MAP   ========================

 Data for node: ivb124	Num slots: 6	Max slots: 0	Num procs: 6
 	Process OMPI jobid: [49683,1] App: 0 Process rank: 0
 	Process OMPI jobid: [49683,1] App: 0 Process rank: 1
 	Process OMPI jobid: [49683,1] App: 0 Process rank: 2
 	Process OMPI jobid: [49683,1] App: 0 Process rank: 3
 	Process OMPI jobid: [49683,1] App: 0 Process rank: 4
 	Process OMPI jobid: [49683,1] App: 0 Process rank: 5

 =============================================================
[ivb124:10545] MCW rank 3 bound to socket 0[core 3[hwt 0]]: [./././B/./././././.][./././././././././.]
[ivb124:10545] MCW rank 4 bound to socket 0[core 4[hwt 0]]: [././././B/././././.][./././././././././.]
[ivb124:10545] MCW rank 5 bound to socket 0[core 5[hwt 0]]: [./././././B/./././.][./././././././././.]
[ivb124:10545] MCW rank 0 bound to socket 0[core 0[hwt 0]]: [B/././././././././.][./././././././././.]
[ivb124:10545] MCW rank 1 bound to socket 0[core 1[hwt 0]]: [./B/./././././././.][./././././././././.]
[ivb124:10545] MCW rank 2 bound to socket 0[core 2[hwt 0]]: [././B/././././././.][./././././././././.]
/*---------------------------------------------------------------------------*\
| =========                 |                                                 |
| \\      /  F ield         | foam-extend: Open Source CFD                    |
|  \\    /   O peration     | Version:     3.1                                |
|   \\  /    A nd           | Web:         http://www.extend-project.de       |
|    \\/     M anipulation  |                                                 |
\*---------------------------------------------------------------------------*/
Build    : 3.1-e2da948002a2
Exec     : pimpleDyMFoam -parallel
Date     : May 23 2016
Time     : 21:24:24
Host     : ivb124
PID      : 10601
CtrlDict : /home-2/vplatonov/foam/foam-extend-3.1/etc/controlDict
Case     : /home/vplatonov/tests/3D-mesh1-of3.1
nProcs   : 6
Slaves : 
5
(
ivb124.10589
ivb124.10597
ivb124.10590
ivb124.10592
ivb124.10603
)

Pstream initialized with:
    floatTransfer     : 0
    nProcsSimpleSum   : 0
    commsType         : blocking
SigFpe   : Enabling floating point exception trapping (FOAM_SIGFPE).

// * * * * * * * * * * * * * * * * * * * * * * * * * * * * * * * * * * * * * //
Create time

Create dynamic mesh for time = 0

Selecting dynamicFvMesh dynamicMotionSolverFvMesh
Selecting motion solver: displacementLaplacian
Selecting motion diffusion: quadratic
Selecting motion diffusion: inverseDistance
Reading field p

Reading field U

Reading/calculating face flux field phi

Selecting incompressible transport model Newtonian
Selecting turbulence model type LESModel
Selecting LES turbulence model oneEqEddy
oneEqEddyCoeffs
{
    ce              1.048;
    ck              0.094;
}

Reading field rAU if present


Starting time loop

Courant Number mean: 0 max: 0.0007592825 velocity magnitude: 0.4779
Reading old state
Before setting displacements
GAMGPCG:  Solving for cellDisplacementx, Initial residual = 0, Final residual = 0, No Iterations 0
GAMGPCG:  Solving for cellDisplacementy, Initial residual = 0, Final residual = 0, No Iterations 0
GAMGPCG:  Solving for cellDisplacementz, Initial residual = 0, Final residual = 0, No Iterations 0
Time = 5e-06

GAMGPCG:  Solving for cellDisplacementx, Initial residual = 0, Final residual = 0, No Iterations 0
GAMGPCG:  Solving for cellDisplacementy, Initial residual = 0, Final residual = 0, No Iterations 0
GAMGPCG:  Solving for cellDisplacementz, Initial residual = 0, Final residual = 0, No Iterations 0
volume continuity errors : volume = 4.535015, max error = 0, sum local = 0, global = 0
smoothSolver:  Solving for Ux, Initial residual = 1, Final residual = 2.285051e-08, No Iterations 1
smoothSolver:  Solving for Uy, Initial residual = 1, Final residual = 2.172388e-08, No Iterations 1
smoothSolver:  Solving for Uz, Initial residual = 0.9999962, Final residual = 4.2334e-08, No Iterations 1
Created persistent data with name p
Computing AINV with droptol 0.02
GPU: 692 iters: 13.81039 s: 50.09064 GB/s
SGPUPCG:  Solving for p, Initial residual = 1, Final residual = 0.009868884, No Iterations 692
Computing AINV with droptol 0.02
GPU: 156 iters: 3.262959 s: 47.79357 GB/s
SGPUPCG:  Solving for p, Initial residual = 0.0004703919, Final residual = 9.870816e-06, No Iterations 156
time step continuity errors : sum local = 2.222327e-09, global = -1.904459e-12, cumulative = -1.904459e-12
Moving mesh time step continuity errors : sum local = 2.222327e-09, global = -1.904459e-12, cumulative = -3.808918e-12
GPU: 143 iters: 2.965573 s: 48.20409 GB/s
SGPUPCG:  Solving for p, Initial residual = 0.0001094096, Final residual = 9.715493e-06, No Iterations 143
GPU: 723 iters: 14.85206 s: 48.66405 GB/s
SGPUPCG:  Solving for p, Initial residual = 4.631984e-05, Final residual = 9.676559e-08, No Iterations 723
time step continuity errors : sum local = 2.179691e-11, global = -1.623022e-13, cumulative = -3.97122e-12
Moving mesh time step continuity errors : sum local = 2.179691e-11, global = -1.623022e-13, cumulative = -4.133523e-12
smoothSolver:  Solving for k, Initial residual = 1, Final residual = 1.260037e-11, No Iterations 2
ExecutionTime = 145.69 s  ClockTime = 147 s

Courant Number mean: 7.683021e-05 max: 0.002865072 velocity magnitude: 0.9550929
yForce = -0.8159243
Y= -1.259694e-12
Vy= -5.038772e-07
Time = 1e-05

GAMGPCG:  Solving for cellDisplacementx, Initial residual = 0, Final residual = 0, No Iterations 0
GAMGPCG:  Solving for cellDisplacementy, Initial residual = 1, Final residual = 3.309934e-09, No Iterations 1
GAMGPCG:  Solving for cellDisplacementz, Initial residual = 0, Final residual = 0, No Iterations 0
volume continuity errors : volume = 4.535015, max error = 8.532165e-09, sum local = 5.9578e-15, global = -2.585902e-18
smoothSolver:  Solving for Ux, Initial residual = 0.9975504, Final residual = 4.958145e-07, No Iterations 1
smoothSolver:  Solving for Uy, Initial residual = 0.33333, Final residual = 1.449487e-06, No Iterations 1
smoothSolver:  Solving for Uz, Initial residual = 0.2814797, Final residual = 7.783659e-07, No Iterations 1
GPU: 694 iters: 14.27455 s: 48.60192 GB/s
SGPUPCG:  Solving for p, Initial residual = 0.003643888, Final residual = 3.523952e-05, No Iterations 694
GPU: 228 iters: 4.71642 s: 48.32578 GB/s
SGPUPCG:  Solving for p, Initial residual = 0.001402974, Final residual = 1.393875e-05, No Iterations 228
time step continuity errors : sum local = 1.047723e-09, global = -7.697299e-13, cumulative = -4.903252e-12
Moving mesh time step continuity errors : sum local = 1.047723e-09, global = -7.697299e-13, cumulative = -5.672982e-12
GPU: 299 iters: 6.183957 s: 48.33495 GB/s
SGPUPCG:  Solving for p, Initial residual = 0.0003132028, Final residual = 9.884243e-06, No Iterations 299
GPU: 668 iters: 13.73668 s: 48.61286 GB/s
SGPUPCG:  Solving for p, Initial residual = 0.0001184109, Final residual = 9.637734e-08, No Iterations 668
time step continuity errors : sum local = 7.236777e-12, global = -7.153923e-14, cumulative = -5.744522e-12
Moving mesh time step continuity errors : sum local = 7.236777e-12, global = -7.153923e-14, cumulative = -5.816061e-12
smoothSolver:  Solving for k, Initial residual = 0.008780205, Final residual = 4.660519e-09, No Iterations 1
ExecutionTime = 215.42 s  ClockTime = 217 s

Courant Number mean: 7.683241e-05 max: 0.002856926 velocity magnitude: 0.9523775
yForce = 1.345152
Y= -1.702317e-12
Vy= 3.268275e-07
Time = 1.5e-05

GAMGPCG:  Solving for cellDisplacementx, Initial residual = 0, Final residual = 0, No Iterations 0
GAMGPCG:  Solving for cellDisplacementy, Initial residual = 0.3036421, Final residual = 1.760567e-09, No Iterations 1
GAMGPCG:  Solving for cellDisplacementz, Initial residual = 0, Final residual = 0, No Iterations 0
volume continuity errors : volume = 4.535015, max error = 8.694695e-09, sum local = 6.566006e-15, global = -5.844993e-18
smoothSolver:  Solving for Ux, Initial residual = 0.9921624, Final residual = 4.935614e-07, No Iterations 1
smoothSolver:  Solving for Uy, Initial residual = 0.1847382, Final residual = 8.692821e-07, No Iterations 1
smoothSolver:  Solving for Uz, Initial residual = 0.7764884, Final residual = 1.891861e-06, No Iterations 1
GPU: 690 iters: 14.16723 s: 48.68786 GB/s
SGPUPCG:  Solving for p, Initial residual = 0.002800819, Final residual = 2.761452e-05, No Iterations 690
GPU: 227 iters: 4.706634 s: 48.21387 GB/s
SGPUPCG:  Solving for p, Initial residual = 0.09896625, Final residual = 0.0009878449, No Iterations 227
time step continuity errors : sum local = 3.453625e-10, global = 2.593028e-13, cumulative = -5.556758e-12
Moving mesh time step continuity errors : sum local = 3.453625e-10, global = 2.593028e-13, cumulative = -5.297455e-12
GPU: 411 iters: 8.460722 s: 48.56137 GB/s
SGPUPCG:  Solving for p, Initial residual = 0.02238927, Final residual = 0.0002218303, No Iterations 411
GPU: 886 iters: 18.20325 s: 48.65655 GB/s
SGPUPCG:  Solving for p, Initial residual = 0.007525591, Final residual = 9.579183e-08, No Iterations 886
time step continuity errors : sum local = 3.04345e-14, global = -1.489838e-16, cumulative = -5.297604e-12
Moving mesh time step continuity errors : sum local = 3.04345e-14, global = -1.489838e-16, cumulative = -5.297753e-12
smoothSolver:  Solving for k, Initial residual = 0.003835062, Final residual = 2.146303e-09, No Iterations 1
ExecutionTime = 292.82 s  ClockTime = 294 s

Courant Number mean: 7.683292e-05 max: 0.002858857 velocity magnitude: 0.9530213
yForce = -0.006773764
Y= -7.863859e-14
Vy= 3.226438e-07
Time = 2e-05

GAMGPCG:  Solving for cellDisplacementx, Initial residual = 0, Final residual = 0, No Iterations 0
GAMGPCG:  Solving for cellDisplacementy, Initial residual = 1, Final residual = 3.377673e-09, No Iterations 1
GAMGPCG:  Solving for cellDisplacementz, Initial residual = 0, Final residual = 0, No Iterations 0
volume continuity errors : volume = 4.535015, max error = 1.011059e-08, sum local = 6.54874e-15, global = 1.989981e-19
smoothSolver:  Solving for Ux, Initial residual = 0.05066739, Final residual = 5.139229e-08, No Iterations 1
smoothSolver:  Solving for Uy, Initial residual = 0.01317694, Final residual = 9.316752e-08, No Iterations 1
smoothSolver:  Solving for Uz, Initial residual = 0.9103727, Final residual = 2.286109e-06, No Iterations 1
GPU: 104 iters: 2.167563 s: 47.9643 GB/s
SGPUPCG:  Solving for p, Initial residual = 0.2265683, Final residual = 0.002254158, No Iterations 104
GPU: 348 iters: 7.168771 s: 48.52785 GB/s
SGPUPCG:  Solving for p, Initial residual = 0.01254367, Final residual = 0.0001243623, No Iterations 348
time step continuity errors : sum local = 3.35488e-11, global = -3.009499e-12, cumulative = -8.307253e-12
Moving mesh time step continuity errors : sum local = 3.35488e-11, global = -3.009499e-12, cumulative = -1.131675e-11
GPU: 552 iters: 11.35824 s: 48.58302 GB/s
SGPUPCG:  Solving for p, Initial residual = 0.004237294, Final residual = 4.176303e-05, No Iterations 552
GPU: 812 iters: 16.69377 s: 48.62483 GB/s
SGPUPCG:  Solving for p, Initial residual = 0.001800459, Final residual = 9.624252e-08, No Iterations 812
time step continuity errors : sum local = 2.580872e-14, global = -1.121106e-16, cumulative = -1.131686e-11
Moving mesh time step continuity errors : sum local = 2.580872e-14, global = -1.121106e-16, cumulative = -1.131698e-11
smoothSolver:  Solving for k, Initial residual = 0.002273125, Final residual = 1.353363e-09, No Iterations 1
ExecutionTime = 361.57 s  ClockTime = 363 s

Courant Number mean: 7.683347e-05 max: 0.002856743 velocity magnitude: 0.9523164
yForce = -0.3240474
Y= 1.034287e-12
Vy= 1.225266e-07
Time = 2.5e-05

GAMGPCG:  Solving for cellDisplacementx, Initial residual = 0, Final residual = 0, No Iterations 0
GAMGPCG:  Solving for cellDisplacementy, Initial residual = 0.8800041, Final residual = 3.314221e-09, No Iterations 1
GAMGPCG:  Solving for cellDisplacementz, Initial residual = 0, Final residual = 0, No Iterations 0
volume continuity errors : volume = 4.535015, max error = 8.964449e-09, sum local = 6.605054e-15, global = 3.831912e-18
smoothSolver:  Solving for Ux, Initial residual = 0.02706967, Final residual = 1.795837e-08, No Iterations 1
smoothSolver:  Solving for Uy, Initial residual = 0.004547015, Final residual = 3.169808e-08, No Iterations 1
smoothSolver:  Solving for Uz, Initial residual = 0.7682027, Final residual = 2.556165e-06, No Iterations 1
GPU: 29 iters: 0.6390966 s: 45.36157 GB/s
SGPUPCG:  Solving for p, Initial residual = 0.1533795, Final residual = 0.001456592, No Iterations 29
GPU: 390 iters: 8.062306 s: 48.35728 GB/s
SGPUPCG:  Solving for p, Initial residual = 0.003845896, Final residual = 3.790725e-05, No Iterations 390
time step continuity errors : sum local = 9.011897e-12, global = 6.405386e-13, cumulative = -1.067644e-11
Moving mesh time step continuity errors : sum local = 9.011897e-12, global = 6.405386e-13, cumulative = -1.00359e-11
GPU: 566 iters: 11.65835 s: 48.53284 GB/s
SGPUPCG:  Solving for p, Initial residual = 0.001012147, Final residual = 1.004228e-05, No Iterations 566
GPU: 773 iters: 15.89452 s: 48.61704 GB/s
SGPUPCG:  Solving for p, Initial residual = 0.0003967728, Final residual = 9.964891e-08, No Iterations 773
time step continuity errors : sum local = 2.361559e-14, global = -1.109978e-17, cumulative = -1.003591e-11
Moving mesh time step continuity errors : sum local = 2.361559e-14, global = -1.109978e-17, cumulative = -1.003592e-11
smoothSolver:  Solving for k, Initial residual = 0.001554793, Final residual = 9.811403e-10, No Iterations 1
ExecutionTime = 429.93 s  ClockTime = 432 s

Courant Number mean: 7.68336e-05 max: 0.002854609 velocity magnitude: 0.9516052
yForce = 0.2130776
Y= 1.975887e-12
Vy= 2.541133e-07
Time = 3e-05

GAMGPCG:  Solving for cellDisplacementx, Initial residual = 0, Final residual = 0, No Iterations 0
GAMGPCG:  Solving for cellDisplacementy, Initial residual = 0.5195349, Final residual = 1.899829e-09, No Iterations 1
GAMGPCG:  Solving for cellDisplacementz, Initial residual = 0, Final residual = 0, No Iterations 0
volume continuity errors : volume = 4.535015, max error = 9.48652e-09, sum local = 6.656356e-15, global = 2.039536e-19
smoothSolver:  Solving for Ux, Initial residual = 0.01761466, Final residual = 8.810909e-09, No Iterations 1
smoothSolver:  Solving for Uy, Initial residual = 0.001237517, Final residual = 1.620757e-08, No Iterations 1
smoothSolver:  Solving for Uz, Initial residual = 0.3849006, Final residual = 2.595214e-06, No Iterations 1
GPU: 5 iters: 0.1477493 s: 33.82993 GB/s
SGPUPCG:  Solving for p, Initial residual = 0.1088624, Final residual = 0.0008964691, No Iterations 5
GPU: 145 iters: 3.007442 s: 48.19781 GB/s
SGPUPCG:  Solving for p, Initial residual = 0.001621234, Final residual = 1.588933e-05, No Iterations 145
time step continuity errors : sum local = 3.408866e-12, global = -9.699896e-17, cumulative = -1.003602e-11
Moving mesh time step continuity errors : sum local = 3.408866e-12, global = -9.699896e-17, cumulative = -1.003612e-11
GPU: 30 iters: 0.662166 s: 45.2909 GB/s
SGPUPCG:  Solving for p, Initial residual = 0.000297437, Final residual = 9.378166e-06, No Iterations 30
GPU: 649 iters: 13.36565 s: 48.54125 GB/s
SGPUPCG:  Solving for p, Initial residual = 0.0001163448, Final residual = 9.911141e-08, No Iterations 649
time step continuity errors : sum local = 2.125353e-14, global = 3.863172e-17, cumulative = -1.003608e-11
Moving mesh time step continuity errors : sum local = 2.125353e-14, global = 3.863172e-17, cumulative = -1.003604e-11
smoothSolver:  Solving for k, Initial residual = 0.001156912, Final residual = 7.62877e-10, No Iterations 1
ExecutionTime = 477.9 s  ClockTime = 480 s

Courant Number mean: 7.683369e-05 max: 0.002852247 velocity magnitude: 0.9508177
yForce = -0.04268791
Y= 3.180547e-12
Vy= 2.277508e-07
Time = 3.5e-05

GAMGPCG:  Solving for cellDisplacementx, Initial residual = 0, Final residual = 0, No Iterations 0
GAMGPCG:  Solving for cellDisplacementy, Initial residual = 0.4508709, Final residual = 1.510638e-09, No Iterations 1
GAMGPCG:  Solving for cellDisplacementz, Initial residual = 0, Final residual = 0, No Iterations 0
volume continuity errors : volume = 4.535015, max error = 8.548563e-09, sum local = 6.711915e-15, global = 5.229406e-18
smoothSolver:  Solving for Ux, Initial residual = 0.01352731, Final residual = 6.938507e-09, No Iterations 1
smoothSolver:  Solving for Uy, Initial residual = 0.0009592252, Final residual = 1.216099e-08, No Iterations 1
smoothSolver:  Solving for Uz, Initial residual = 0.2552494, Final residual = 1.907787e-06, No Iterations 1
GPU: 3 iters: 0.1067562 s: 28.09212 GB/s
SGPUPCG:  Solving for p, Initial residual = 0.09114943, Final residual = 0.000763333, No Iterations 3
GPU: 124 iters: 2.578778 s: 48.0689 GB/s
SGPUPCG:  Solving for p, Initial residual = 0.0009480155, Final residual = 9.732112e-06, No Iterations 124
time step continuity errors : sum local = 1.917331e-12, global = -2.501427e-17, cumulative = -1.003606e-11
Moving mesh time step continuity errors : sum local = 1.917331e-12, global = -2.501427e-17, cumulative = -1.003609e-11
GPU: 25 iters: 0.5583624 s: 44.759 GB/s
SGPUPCG:  Solving for p, Initial residual = 9.114159e-05, Final residual = 9.61287e-06, No Iterations 25
GPU: 645 iters: 13.27204 s: 48.58236 GB/s
SGPUPCG:  Solving for p, Initial residual = 3.2043e-05, Final residual = 9.715714e-08, No Iterations 645
time step continuity errors : sum local = 1.913594e-14, global = 7.418779e-17, cumulative = -1.003601e-11
Moving mesh time step continuity errors : sum local = 1.913594e-14, global = 7.418779e-17, cumulative = -1.003594e-11
smoothSolver:  Solving for k, Initial residual = 0.0009097416, Final residual = 6.330738e-10, No Iterations 1
ExecutionTime = 525.42 s  ClockTime = 527 s

Courant Number mean: 7.683374e-05 max: 0.002849501 velocity magnitude: 0.9499023
yForce = -0.04516789
Y= 4.249567e-12
Vy= 1.998569e-07
Time = 4e-05

GAMGPCG:  Solving for cellDisplacementx, Initial residual = 0, Final residual = 0, No Iterations 0
GAMGPCG:  Solving for cellDisplacementy, Initial residual = 0.3184197, Final residual = 1.091017e-09, No Iterations 1
GAMGPCG:  Solving for cellDisplacementz, Initial residual = 0, Final residual = 0, No Iterations 0
volume continuity errors : volume = 4.535015, max error = 9.485913e-09, sum local = 6.751644e-15, global = 4.764022e-18
smoothSolver:  Solving for Ux, Initial residual = 0.01095196, Final residual = 5.674944e-09, No Iterations 1
smoothSolver:  Solving for Uy, Initial residual = 0.0008074542, Final residual = 9.760218e-09, No Iterations 1
smoothSolver:  Solving for Uz, Initial residual = 0.2030504, Final residual = 1.782209e-06, No Iterations 1
GPU: 3 iters: 0.1059907 s: 28.29503 GB/s
SGPUPCG:  Solving for p, Initial residual = 0.07497279, Final residual = 0.0003902912, No Iterations 3
GPU: 40 iters: 0.8620238 s: 46.3871 GB/s
SGPUPCG:  Solving for p, Initial residual = 0.0005379658, Final residual = 9.695246e-06, No Iterations 40
time step continuity errors : sum local = 1.774377e-12, global = -1.304609e-16, cumulative = -1.003607e-11
Moving mesh time step continuity errors : sum local = 1.774377e-12, global = -1.304609e-16, cumulative = -1.00362e-11
GPU: 3 iters: 0.1053411 s: 28.4695 GB/s
SGPUPCG:  Solving for p, Initial residual = 3.876337e-05, Final residual = 8.925306e-06, No Iterations 3
GPU: 644 iters: 13.24298 s: 48.61349 GB/s
SGPUPCG:  Solving for p, Initial residual = 1.436996e-05, Final residual = 9.818595e-08, No Iterations 644
time step continuity errors : sum local = 1.796751e-14, global = 6.322804e-18, cumulative = -1.003619e-11
Moving mesh time step continuity errors : sum local = 1.796751e-14, global = 6.322805e-18, cumulative = -1.003619e-11
smoothSolver:  Solving for k, Initial residual = 0.000743692, Final residual = 5.397356e-10, No Iterations 1
ExecutionTime = 570.3 s  ClockTime = 572 s

Courant Number mean: 7.683376e-05 max: 0.002846381 velocity magnitude: 0.9488623
yForce = 0.04203046
Y= 5.31374e-12
Vy= 2.258127e-07
Time = 4.5e-05

GAMGPCG:  Solving for cellDisplacementx, Initial residual = 0, Final residual = 0, No Iterations 0
GAMGPCG:  Solving for cellDisplacementy, Initial residual = 0.263595, Final residual = 8.539126e-10, No Iterations 1
GAMGPCG:  Solving for cellDisplacementz, Initial residual = 0, Final residual = 0, No Iterations 0
volume continuity errors : volume = 4.535015, max error = 8.162806e-09, sum local = 6.74772e-15, global = 2.149535e-18
smoothSolver:  Solving for Ux, Initial residual = 0.009356457, Final residual = 4.8331e-09, No Iterations 1
smoothSolver:  Solving for Uy, Initial residual = 0.000679262, Final residual = 8.064199e-09, No Iterations 1
smoothSolver:  Solving for Uz, Initial residual = 0.1869052, Final residual = 1.469302e-06, No Iterations 1
GPU: 3 iters: 0.1045232 s: 28.69227 GB/s
SGPUPCG:  Solving for p, Initial residual = 0.06276936, Final residual = 0.0003142329, No Iterations 3
GPU: 19 iters: 0.4343222 s: 43.73187 GB/s
SGPUPCG:  Solving for p, Initial residual = 0.0004227326, Final residual = 9.565879e-06, No Iterations 19
time step continuity errors : sum local = 1.640572e-12, global = -8.014635e-17, cumulative = -1.003627e-11
Moving mesh time step continuity errors : sum local = 1.640572e-12, global = -8.014635e-17, cumulative = -1.003635e-11
GPU: 1 iters: 0.06393782 s: 15.63503 GB/s
SGPUPCG:  Solving for p, Initial residual = 2.480433e-05, Final residual = 8.612708e-06, No Iterations 1
GPU: 416 iters: 8.581573 s: 48.45995 GB/s
SGPUPCG:  Solving for p, Initial residual = 9.869893e-06, Final residual = 9.903693e-08, No Iterations 416
time step continuity errors : sum local = 1.698407e-14, global = 1.487611e-15, cumulative = -1.003486e-11
Moving mesh time step continuity errors : sum local = 1.698407e-14, global = 1.487611e-15, cumulative = -1.003337e-11
smoothSolver:  Solving for k, Initial residual = 0.0006255964, Final residual = 4.717724e-10, No Iterations 1
ExecutionTime = 611.17 s  ClockTime = 613 s

Courant Number mean: 7.683375e-05 max: 0.00284288 velocity magnitude: 0.9482452
yForce = -0.01162053
Y= 6.424862e-12
Vy= 2.18636e-07
Time = 5e-05

GAMGPCG:  Solving for cellDisplacementx, Initial residual = 0, Final residual = 0, No Iterations 0
GAMGPCG:  Solving for cellDisplacementy, Initial residual = 0.2326536, Final residual = 7.782616e-10, No Iterations 1
GAMGPCG:  Solving for cellDisplacementz, Initial residual = 0, Final residual = 0, No Iterations 0
volume continuity errors : volume = 4.535015, max error = 8.399641e-09, sum local = 6.740327e-15, global = 9.31453e-19
smoothSolver:  Solving for Ux, Initial residual = 0.008276688, Final residual = 4.218627e-09, No Iterations 1
smoothSolver:  Solving for Uy, Initial residual = 0.0005943369, Final residual = 6.844195e-09, No Iterations 1
smoothSolver:  Solving for Uz, Initial residual = 0.1340321, Final residual = 1.089926e-06, No Iterations 1
GPU: 3 iters: 0.1053492 s: 28.46731 GB/s
SGPUPCG:  Solving for p, Initial residual = 0.05636369, Final residual = 0.0002638688, No Iterations 3
GPU: 16 iters: 0.372114 s: 42.98337 GB/s
SGPUPCG:  Solving for p, Initial residual = 0.0003486746, Final residual = 9.333841e-06, No Iterations 16
time step continuity errors : sum local = 1.510413e-12, global = 3.466643e-15, cumulative = -1.002991e-11
Moving mesh time step continuity errors : sum local = 1.510413e-12, global = 3.466643e-15, cumulative = -1.002644e-11
GPU: 1 iters: 0.06577049 s: 15.19936 GB/s
SGPUPCG:  Solving for p, Initial residual = 1.964247e-05, Final residual = 7.750543e-06, No Iterations 1
GPU: 641 iters: 13.14189 s: 48.75922 GB/s
SGPUPCG:  Solving for p, Initial residual = 8.462228e-06, Final residual = 9.850888e-08, No Iterations 641
time step continuity errors : sum local = 1.594033e-14, global = -3.558721e-17, cumulative = -1.002648e-11
Moving mesh time step continuity errors : sum local = 1.594033e-14, global = -3.558721e-17, cumulative = -1.002651e-11
smoothSolver:  Solving for k, Initial residual = 0.0005378837, Final residual = 4.204694e-10, No Iterations 1
ExecutionTime = 656.64 s  ClockTime = 659 s

yForce = -0.004857481
Y= 7.510542e-12
Vy= 2.156359e-07
End

Finalising parallel run
