 Data for JOB [874,1] offset 0

 ========================   JOB MAP   ========================

 Data for node: ivb106	Num slots: 6	Max slots: 0	Num procs: 6
 	Process OMPI jobid: [874,1] App: 0 Process rank: 0
 	Process OMPI jobid: [874,1] App: 0 Process rank: 1
 	Process OMPI jobid: [874,1] App: 0 Process rank: 2
 	Process OMPI jobid: [874,1] App: 0 Process rank: 3
 	Process OMPI jobid: [874,1] App: 0 Process rank: 4
 	Process OMPI jobid: [874,1] App: 0 Process rank: 5

 =============================================================
[ivb106:35064] MCW rank 3 bound to socket 0[core 3[hwt 0]]: [./././B/./././././.][./././././././././.]
[ivb106:35064] MCW rank 4 bound to socket 0[core 4[hwt 0]]: [././././B/././././.][./././././././././.]
[ivb106:35064] MCW rank 5 bound to socket 0[core 5[hwt 0]]: [./././././B/./././.][./././././././././.]
[ivb106:35064] MCW rank 0 bound to socket 0[core 0[hwt 0]]: [B/././././././././.][./././././././././.]
[ivb106:35064] MCW rank 1 bound to socket 0[core 1[hwt 0]]: [./B/./././././././.][./././././././././.]
[ivb106:35064] MCW rank 2 bound to socket 0[core 2[hwt 0]]: [././B/././././././.][./././././././././.]
/*---------------------------------------------------------------------------*\
| =========                 |                                                 |
| \\      /  F ield         | foam-extend: Open Source CFD                    |
|  \\    /   O peration     | Version:     3.1                                |
|   \\  /    A nd           | Web:         http://www.extend-project.de       |
|    \\/     M anipulation  |                                                 |
\*---------------------------------------------------------------------------*/
Build    : 3.1-e2da948002a2
Exec     : interFoam -parallel
Date     : May 15 2016
Time     : 17:42:57
Host     : ivb106
PID      : 35120
CtrlDict : /home-2/vplatonov/foam/foam-extend-3.1/etc/controlDict
Case     : /home/vplatonov/tests/rt12mln
nProcs   : 6
Slaves : 
5
(
ivb106.35108
ivb106.35113
ivb106.35109
ivb106.35117
ivb106.35122
)

Pstream initialized with:
    floatTransfer     : 0
    nProcsSimpleSum   : 0
    commsType         : blocking
SigFpe   : Enabling floating point exception trapping (FOAM_SIGFPE).

// * * * * * * * * * * * * * * * * * * * * * * * * * * * * * * * * * * * * * //
Create time

Create mesh for time = 0


Reading g
Reading field pd

Reading field alpha1

Reading field U

Reading/calculating face flux field phi

Reading transportProperties

Selecting incompressible transport model Newtonian
Selecting incompressible transport model Newtonian
Calculating field g.h

Selecting turbulence model type laminar
time step continuity errors : sum local = 0, global = 0, cumulative = 0
Created persistent data with name pcorr
GPUBICGS:  Solving for pcorr, Initial residual = 0, Final residual = 0, No Iterations 0
time step continuity errors : sum local = 0, global = 0, cumulative = 0
Courant Number mean: 0 max: 0 velocity magnitude: 0

Starting time loop

Courant Number mean: 0 max: 0 velocity magnitude: 0
Time = 0.001

MULES: Solving for alpha1
Liquid phase volume fraction = 0.00275421  Min(alpha1) = 0  Max(alpha1) = 1
MULES: Solving for alpha1
Liquid phase volume fraction = 0.00275421  Min(alpha1) = 0  Max(alpha1) = 1
Created persistent data with name pd
Computing AINV with droptol 0.02
GPU: 2 iters: 0.0689382 s: 27.5753 GB/s
Total exec time 0.0689382
 Total comm time 0.00328496Pre time 0.000197152 Post time 0.00308781
GPUBICGS:  Solving for pd, Initial residual = 1, Final residual = 0.0487452, No Iterations 2
Computing AINV with droptol 0.02
GPU: 27 iters: 0.694904 s: 36.9308 GB/s
Total exec time 0.763842
 Total comm time 0.0644167Pre time 0.00169267 Post time 0.062724
GPUBICGS:  Solving for pd, Initial residual = 0.0329437, Final residual = 0.00159096, No Iterations 27
GPU: 602 iters: 15.157 s: 37.7514 GB/s
Total exec time 15.9208
 Total comm time 1.02794Pre time 0.0373279 Post time 0.990614
GPUBICGS:  Solving for pd, Initial residual = 0.0128911, Final residual = 5.70359e-08, No Iterations 602
time step continuity errors : sum local = 5.92628e-12, global = -5.07007e-24, cumulative = -5.07007e-24
ExecutionTime = 80.41 s  ClockTime = 96 s

Courant Number mean: 4.82184e-06 max: 0.00215159 velocity magnitude: 0.0336186
Time = 0.002

MULES: Solving for alpha1
Liquid phase volume fraction = 0.00275421  Min(alpha1) = 0  Max(alpha1) = 1
MULES: Solving for alpha1
Liquid phase volume fraction = 0.00275421  Min(alpha1) = 0  Max(alpha1) = 1
GPU: 468 iters: 11.8266 s: 37.6127 GB/s
Total exec time 27.7475
 Total comm time 1.75756Pre time 0.0651936 Post time 1.69236
GPUBICGS:  Solving for pd, Initial residual = 0.00503793, Final residual = 0.000235157, No Iterations 468
GPU: 526 iters: 13.2389 s: 37.7645 GB/s
Total exec time 40.9863
 Total comm time 2.5876Pre time 0.0981436 Post time 2.48945
GPUBICGS:  Solving for pd, Initial residual = 0.00393069, Final residual = 0.000109822, No Iterations 526
GPU: 678 iters: 17.0995 s: 37.6874 GB/s
Total exec time 58.0858
 Total comm time 3.63671Pre time 0.136684 Post time 3.50002
GPUBICGS:  Solving for pd, Initial residual = 0.00337191, Final residual = 9.19935e-08, No Iterations 678
time step continuity errors : sum local = 4.11148e-08, global = -4.11108e-08, cumulative = -4.11108e-08
ExecutionTime = 146.05 s  ClockTime = 162 s

Courant Number mean: 1.34983e-05 max: 0.219351 velocity magnitude: 1.71368
Time = 0.003

MULES: Solving for alpha1
Liquid phase volume fraction = 0.00275424  Min(alpha1) = -1.74259e-30  Max(alpha1) = 1
MULES: Solving for alpha1
Liquid phase volume fraction = 0.00275426  Min(alpha1) = -2.01393e-30  Max(alpha1) = 1
GPU: 500 iters: 12.6249 s: 37.6435 GB/s
Total exec time 70.7108
 Total comm time 4.39666Pre time 0.168344 Post time 4.22831
GPUBICGS:  Solving for pd, Initial residual = 0.00742109, Final residual = 0.000133701, No Iterations 500
GPU: 456 iters: 11.5157 s: 37.6377 GB/s
Total exec time 82.2265
 Total comm time 5.09226Pre time 0.196659 Post time 4.8956
GPUBICGS:  Solving for pd, Initial residual = 0.00494918, Final residual = 0.000194762, No Iterations 456
GPU: 689 iters: 17.344 s: 37.759 GB/s
Total exec time 99.5705
 Total comm time 6.15487Pre time 0.237237 Post time 5.91763
GPUBICGS:  Solving for pd, Initial residual = 0.00506584, Final residual = 9.67902e-08, No Iterations 689
time step continuity errors : sum local = 2.22719e-08, global = -2.22627e-08, cumulative = -6.33736e-08
ExecutionTime = 211.21 s  ClockTime = 227 s

Courant Number mean: 1.62985e-05 max: 0.131624 velocity magnitude: 1.02831
Time = 0.004

MULES: Solving for alpha1
Liquid phase volume fraction = 0.00275427  Min(alpha1) = -6.92462e-30  Max(alpha1) = 1
MULES: Solving for alpha1
Liquid phase volume fraction = 0.00275428  Min(alpha1) = -9.06993e-30  Max(alpha1) = 1
GPU: 555 iters: 14.015 s: 37.6399 GB/s
Total exec time 113.586
 Total comm time 6.97393Pre time 0.270399 Post time 6.70354
GPUBICGS:  Solving for pd, Initial residual = 0.00843912, Final residual = 0.000361039, No Iterations 555
GPU: 136 iters: 3.42044 s: 37.7926 GB/s
Total exec time 117.006
 Total comm time 7.15442Pre time 0.278744 Post time 6.87567
GPUBICGS:  Solving for pd, Initial residual = 0.0071625, Final residual = 0.00034268, No Iterations 136
GPU: 619 iters: 15.6865 s: 37.5073 GB/s
Total exec time 132.692
 Total comm time 8.09291Pre time 0.317621 Post time 7.77528
GPUBICGS:  Solving for pd, Initial residual = 0.00674831, Final residual = 9.63028e-08, No Iterations 619
time step continuity errors : sum local = 1.05138e-08, global = -1.05137e-08, cumulative = -7.38872e-08
ExecutionTime = 268.07 s  ClockTime = 284 s

Courant Number mean: 2.02605e-05 max: 0.0747713 velocity magnitude: 0.584151
Time = 0.005

MULES: Solving for alpha1
Liquid phase volume fraction = 0.00275429  Min(alpha1) = -1.77441e-29  Max(alpha1) = 1
MULES: Solving for alpha1
Liquid phase volume fraction = 0.00275429  Min(alpha1) = -1.5285e-29  Max(alpha1) = 1
GPU: 563 iters: 14.1304 s: 37.8708 GB/s
Total exec time 146.823
 Total comm time 8.97026Pre time 0.353206 Post time 8.61706
GPUBICGS:  Solving for pd, Initial residual = 0.00675562, Final residual = 0.000248731, No Iterations 563
GPU: 134 iters: 3.40619 s: 37.3926 GB/s
Total exec time 150.229
 Total comm time 9.18181Pre time 0.36294 Post time 8.81887
GPUBICGS:  Solving for pd, Initial residual = 0.00584638, Final residual = 0.000227084, No Iterations 134
GPU: 1000 iters: 25.2667 s: 37.6185 GB/s
Total exec time 175.496
 Total comm time 10.7275Pre time 0.426534 Post time 10.3009
GPUBICGS:  Solving for pd, Initial residual = 0.00559314, Final residual = 1.24864e-07, No Iterations 1000
time step continuity errors : sum local = 2.47615e-09, global = -2.47615e-09, cumulative = -7.63634e-08
ExecutionTime = 334.92 s  ClockTime = 351 s

Courant Number mean: 2.43691e-05 max: 0.0294666 velocity magnitude: 0.303637
Time = 0.006

MULES: Solving for alpha1
Liquid phase volume fraction = 0.00275429  Min(alpha1) = -2.69186e-29  Max(alpha1) = 1
MULES: Solving for alpha1
Liquid phase volume fraction = 0.00275429  Min(alpha1) = -3.63783e-29  Max(alpha1) = 1
GPU: 518 iters: 13.0492 s: 37.7306 GB/s
Total exec time 188.545
 Total comm time 11.4776Pre time 0.458265 Post time 11.0193
GPUBICGS:  Solving for pd, Initial residual = 0.00748092, Final residual = 8.20423e-05, No Iterations 518
GPU: 489 iters: 12.3926 s: 37.5057 GB/s
Total exec time 200.937
 Total comm time 12.2307Pre time 0.490648 Post time 11.7401
GPUBICGS:  Solving for pd, Initial residual = 0.00533997, Final residual = 0.000220835, No Iterations 489
GPU: 1000 iters: 25.2773 s: 37.6027 GB/s
Total exec time 226.215
 Total comm time 13.7334Pre time 0.556305 Post time 13.1771
GPUBICGS:  Solving for pd, Initial residual = 0.0055406, Final residual = 1.8678e-07, No Iterations 1000
time step continuity errors : sum local = 9.3318e-12, global = 9.3318e-12, cumulative = -7.6354e-08
ExecutionTime = 409.38 s  ClockTime = 426 s

Courant Number mean: 2.92872e-05 max: 0.0323829 velocity magnitude: 0.252992
Time = 0.007

MULES: Solving for alpha1
Liquid phase volume fraction = 0.00275429  Min(alpha1) = -6.08363e-29  Max(alpha1) = 1
MULES: Solving for alpha1
Liquid phase volume fraction = 0.00275429  Min(alpha1) = -3.57614e-29  Max(alpha1) = 1
GPU: 511 iters: 12.9207 s: 37.5911 GB/s
Total exec time 239.135
 Total comm time 14.5426Pre time 0.593676 Post time 13.9489
GPUBICGS:  Solving for pd, Initial residual = 0.00719691, Final residual = 0.000320922, No Iterations 511
GPU: 87 iters: 2.21722 s: 37.2959 GB/s
Total exec time 241.353
 Total comm time 14.6769Pre time 0.598188 Post time 14.0787
GPUBICGS:  Solving for pd, Initial residual = 0.00461052, Final residual = 0.000230458, No Iterations 87
GPU: 650 iters: 16.4466 s: 37.5653 GB/s
Total exec time 257.799
 Total comm time 15.6783Pre time 0.635593 Post time 15.0427
GPUBICGS:  Solving for pd, Initial residual = 0.00413713, Final residual = 8.34374e-08, No Iterations 650
time step continuity errors : sum local = 1.45702e-10, global = 1.40918e-10, cumulative = -7.62131e-08
ExecutionTime = 464.78 s  ClockTime = 481 s

Courant Number mean: 3.43765e-05 max: 0.00909082 velocity magnitude: 0.130262
Time = 0.008

MULES: Solving for alpha1
Liquid phase volume fraction = 0.00275429  Min(alpha1) = -2.53771e-29  Max(alpha1) = 1
MULES: Solving for alpha1
Liquid phase volume fraction = 0.00275429  Min(alpha1) = -6.6479e-29  Max(alpha1) = 1
GPU: 499 iters: 12.6196 s: 37.5843 GB/s
Total exec time 270.419
 Total comm time 16.4589Pre time 0.670093 Post time 15.7888
GPUBICGS:  Solving for pd, Initial residual = 0.00753234, Final residual = 0.000345737, No Iterations 499
GPU: 409 iters: 10.3195 s: 37.6716 GB/s
Total exec time 280.738
 Total comm time 17.1161Pre time 0.69529 Post time 16.4208
GPUBICGS:  Solving for pd, Initial residual = 0.00457524, Final residual = 0.00021618, No Iterations 409
GPU: 590 iters: 14.8987 s: 37.6403 GB/s
Total exec time 295.637
 Total comm time 17.9881Pre time 0.733698 Post time 17.2544
GPUBICGS:  Solving for pd, Initial residual = 0.00422435, Final residual = 7.21184e-08, No Iterations 590
time step continuity errors : sum local = 1.57345e-10, global = 1.56205e-10, cumulative = -7.60569e-08
ExecutionTime = 526.26 s  ClockTime = 543 s

Courant Number mean: 3.94855e-05 max: 0.00902701 velocity magnitude: 0.14018
Time = 0.009

MULES: Solving for alpha1
Liquid phase volume fraction = 0.00275429  Min(alpha1) = -3.75274e-29  Max(alpha1) = 1
MULES: Solving for alpha1
Liquid phase volume fraction = 0.00275429  Min(alpha1) = -4.90244e-29  Max(alpha1) = 1
GPU: 509 iters: 12.8741 s: 37.5794 GB/s
Total exec time 308.511
 Total comm time 18.7965Pre time 0.770255 Post time 18.0263
GPUBICGS:  Solving for pd, Initial residual = 0.00746308, Final residual = 0.000232971, No Iterations 509
GPU: 428 iters: 10.7742 s: 37.758 GB/s
Total exec time 319.285
 Total comm time 19.4776Pre time 0.796911 Post time 18.6807
GPUBICGS:  Solving for pd, Initial residual = 0.0046104, Final residual = 0.000186824, No Iterations 428
GPU: 576 iters: 14.537 s: 37.6615 GB/s
Total exec time 333.822
 Total comm time 20.3273Pre time 0.837268 Post time 19.49
GPUBICGS:  Solving for pd, Initial residual = 0.0041535, Final residual = 8.87749e-08, No Iterations 576
time step continuity errors : sum local = 1.04838e-11, global = 2.65271e-12, cumulative = -7.60543e-08
ExecutionTime = 588.2 s  ClockTime = 605 s

Courant Number mean: 4.46018e-05 max: 0.0097078 velocity magnitude: 0.149189
Time = 0.01

MULES: Solving for alpha1
Liquid phase volume fraction = 0.00275429  Min(alpha1) = -4.86006e-29  Max(alpha1) = 1
MULES: Solving for alpha1
Liquid phase volume fraction = 0.00275429  Min(alpha1) = -3.01541e-29  Max(alpha1) = 1
GPU: 496 iters: 12.5377 s: 37.6021 GB/s
Total exec time 346.36
 Total comm time 21.1481Pre time 0.868468 Post time 20.2796
GPUBICGS:  Solving for pd, Initial residual = 0.00811033, Final residual = 0.000401008, No Iterations 496
GPU: 428 iters: 10.8413 s: 37.5243 GB/s
Total exec time 357.201
 Total comm time 21.8372Pre time 0.897446 Post time 20.9397
GPUBICGS:  Solving for pd, Initial residual = 0.00485931, Final residual = 0.000240061, No Iterations 428
GPU: 605 iters: 15.3324 s: 37.5054 GB/s
Total exec time 372.534
 Total comm time 22.7903Pre time 0.934441 Post time 21.8559
GPUBICGS:  Solving for pd, Initial residual = 0.00440957, Final residual = 7.05786e-08, No Iterations 605
time step continuity errors : sum local = 4.82578e-11, global = -4.21408e-11, cumulative = -7.60964e-08
ExecutionTime = 650.71 s  ClockTime = 667 s

End

/home-2/vplatonov/bin/nvmps: line 33: 35122 Segmentation fault      "$@"
-------------------------------------------------------
Primary job  terminated normally, but 1 process returned
a non-zero exit code.. Per user-direction, the job has been aborted.
-------------------------------------------------------
/home-2/vplatonov/bin/nvmps: line 33: 35117 Segmentation fault      "$@"
--------------------------------------------------------------------------
mpirun detected that one or more processes exited with non-zero status, thus causing
the job to be terminated. The first process to do so was:

  Process name: [[874,1],5]
  Exit code:    139
--------------------------------------------------------------------------
