 Data for JOB [54509,1] offset 0

 ========================   JOB MAP   ========================

 Data for node: ivb124	Num slots: 4	Max slots: 0	Num procs: 4
 	Process OMPI jobid: [54509,1] App: 0 Process rank: 0
 	Process OMPI jobid: [54509,1] App: 0 Process rank: 1
 	Process OMPI jobid: [54509,1] App: 0 Process rank: 2
 	Process OMPI jobid: [54509,1] App: 0 Process rank: 3

 =============================================================
[ivb124:16335] MCW rank 2 bound to socket 0[core 2[hwt 0]]: [././B/././././././.][./././././././././.]
[ivb124:16335] MCW rank 3 bound to socket 0[core 3[hwt 0]]: [./././B/./././././.][./././././././././.]
[ivb124:16335] MCW rank 0 bound to socket 0[core 0[hwt 0]]: [B/././././././././.][./././././././././.]
[ivb124:16335] MCW rank 1 bound to socket 0[core 1[hwt 0]]: [./B/./././././././.][./././././././././.]
/*---------------------------------------------------------------------------*\
| =========                 |                                                 |
| \\      /  F ield         | foam-extend: Open Source CFD                    |
|  \\    /   O peration     | Version:     3.1                                |
|   \\  /    A nd           | Web:         http://www.extend-project.de       |
|    \\/     M anipulation  |                                                 |
\*---------------------------------------------------------------------------*/
Build    : 3.1-e2da948002a2
Exec     : pimpleDyMFoam -parallel
Date     : May 27 2016
Time     : 20:15:13
Host     : ivb124
PID      : 16368
CtrlDict : /home-2/vplatonov/foam/foam-extend-3.1/etc/controlDict
Case     : /home/vplatonov/tests/3D-mesh1-of3.1
nProcs   : 4
Slaves : 
3
(
ivb124.16372
ivb124.16377
ivb124.16367
)

Pstream initialized with:
    floatTransfer     : 0
    nProcsSimpleSum   : 0
    commsType         : blocking
SigFpe   : Enabling floating point exception trapping (FOAM_SIGFPE).

// * * * * * * * * * * * * * * * * * * * * * * * * * * * * * * * * * * * * * //
Create time

Create dynamic mesh for time = 0

Selecting dynamicFvMesh dynamicMotionSolverFvMesh
Selecting motion solver: displacementLaplacian
Selecting motion diffusion: quadratic
Selecting motion diffusion: inverseDistance
Reading field p

Reading field U

Reading/calculating face flux field phi

Selecting incompressible transport model Newtonian
Selecting turbulence model type LESModel
Selecting LES turbulence model oneEqEddy
oneEqEddyCoeffs
{
    ce              1.048;
    ck              0.094;
}

Reading field rAU if present


Starting time loop

Courant Number mean: 0 max: 0.0007592825 velocity magnitude: 0.4779
Reading old state
Before setting displacements
GAMGPCG:  Solving for cellDisplacementx, Initial residual = 0, Final residual = 0, No Iterations 0
GAMGPCG:  Solving for cellDisplacementy, Initial residual = 0, Final residual = 0, No Iterations 0
GAMGPCG:  Solving for cellDisplacementz, Initial residual = 0, Final residual = 0, No Iterations 0
Time = 5e-06

GAMGPCG:  Solving for cellDisplacementx, Initial residual = 0, Final residual = 0, No Iterations 0
GAMGPCG:  Solving for cellDisplacementy, Initial residual = 0, Final residual = 0, No Iterations 0
GAMGPCG:  Solving for cellDisplacementz, Initial residual = 0, Final residual = 0, No Iterations 0
volume continuity errors : volume = 4.535015, max error = 0, sum local = 0, global = 0
smoothSolver:  Solving for Ux, Initial residual = 1, Final residual = 9.457309e-09, No Iterations 1
smoothSolver:  Solving for Uy, Initial residual = 1, Final residual = 1.115892e-08, No Iterations 1
smoothSolver:  Solving for Uz, Initial residual = 0.9999962, Final residual = 4.021583e-08, No Iterations 1
Created persistent data with name p
Computing AINV with droptol 0.02
GPU: 548 iters: 31.24223 s: 26.75978 GB/s
Total exec time 31.24223
 Total comm time 0.8084034Pre time 0.03810099 Post time 0.7703024
GPUBICGS:  Solving for p, Initial residual = 1, Final residual = 0.008884487, No Iterations 548
Computing AINV with droptol 0.02
GPU: 159 iters: 9.189811 s: 26.39578 GB/s
Total exec time 40.43204
 Total comm time 1.068668Pre time 0.04923117 Post time 1.019437
GPUBICGS:  Solving for p, Initial residual = 0.0004701326, Final residual = 9.736385e-06, No Iterations 159
time step continuity errors : sum local = 2.186118e-09, global = -1.613332e-09, cumulative = -1.613332e-09
Moving mesh time step continuity errors : sum local = 2.186118e-09, global = -1.613332e-09, cumulative = -3.226664e-09
GPU: 42 iters: 2.460534 s: 26.04138 GB/s
Total exec time 42.89257
 Total comm time 1.133322Pre time 0.05211837 Post time 1.081203
GPUBICGS:  Solving for p, Initial residual = 0.0001105527, Final residual = 9.194879e-06, No Iterations 42
GPU: 520 iters: 29.97095 s: 26.46957 GB/s
Total exec time 72.86352
 Total comm time 1.986877Pre time 0.0878871 Post time 1.89899
GPUBICGS:  Solving for p, Initial residual = 4.597612e-05, Final residual = 9.367612e-08, No Iterations 520
time step continuity errors : sum local = 2.104894e-11, global = -4.506919e-13, cumulative = -3.227115e-09
Moving mesh time step continuity errors : sum local = 2.104894e-11, global = -4.506919e-13, cumulative = -3.227565e-09
smoothSolver:  Solving for k, Initial residual = 1, Final residual = 1.499339e-11, No Iterations 2
ExecutionTime = 192.66 s  ClockTime = 196 s

Courant Number mean: 7.683959e-05 max: 0.002864527 velocity magnitude: 0.9549114
yForce = 17.22937
Y= 2.660017e-11
Vy= 1.064006e-05
Time = 1e-05

GAMGPCG:  Solving for cellDisplacementx, Initial residual = 0, Final residual = 0, No Iterations 0
Total solver time is 0
Total solver time is 0
Total solver time is 1
GAMGPCG:  Solving for cellDisplacementy, Initial residual = 1, Final residual = 1.451243e-09, No Iterations 1
GAMGPCG:  Solving for cellDisplacementz, Initial residual = 0, Final residual = 0, No Iterations 0
volume continuity errors : volume = 4.535015, max error = 1.169259e-08, sum local = 6.185373e-15, global = -2.9099e-18
smoothSolver:  Solving for Ux, Initial residual = 0.9975418, Final residual = 5.466747e-07, No Iterations 1
smoothSolver:  Solving for Uy, Initial residual = 0.3325961, Final residual = 1.323275e-06, No Iterations 1
smoothSolver:  Solving for Uz, Initial residual = 0.332973, Final residual = 2.581116e-07, No Iterations 1
GPU: 529 iters: 30.50913 s: 26.45269 GB/s
Total exec time 103.3726
 Total comm time 2.861862Pre time 0.1253414 Post time 2.73652
GPUBICGS:  Solving for p, Initial residual = 0.003644663, Final residual = 3.443907e-05, No Iterations 529
GPU: 503 iters: 29.02434 s: 26.43928 GB/s
Total exec time 132.397
 Total comm time 3.68858Pre time 0.1604397 Post time 3.528141
GPUBICGS:  Solving for p, Initial residual = 0.001423439, Final residual = 1.405008e-05, No Iterations 503
time step continuity errors : sum local = 1.041885e-09, global = -2.172264e-11, cumulative = -3.249288e-09
Moving mesh time step continuity errors : sum local = 1.041885e-09, global = -2.172264e-11, cumulative = -3.271011e-09
GPU: 150 iters: 8.671575 s: 26.38987 GB/s
Total exec time 141.0686
 Total comm time 3.943905Pre time 0.1707459 Post time 3.773159
GPUBICGS:  Solving for p, Initial residual = 0.0003141732, Final residual = 6.4548e-06, No Iterations 150
GPU: 599 iters: 34.55594 s: 26.44528 GB/s
Total exec time 175.6245
 Total comm time 4.908221Pre time 0.2123537 Post time 4.695867
GPUBICGS:  Solving for p, Initial residual = 0.0001163798, Final residual = 5.409428e-08, No Iterations 599
time step continuity errors : sum local = 4.0618e-12, global = -1.527768e-13, cumulative = -3.271164e-09
Moving mesh time step continuity errors : sum local = 4.0618e-12, global = -1.527768e-13, cumulative = -3.271316e-09
smoothSolver:  Solving for k, Initial residual = 0.008782366, Final residual = 3.636359e-09, No Iterations 1
ExecutionTime = 340.49 s  ClockTime = 345 s

Courant Number mean: 7.68432e-05 max: 0.002857015 velocity magnitude: 0.9524071
yForce = -27.66904
Y= 3.708261e-11
Vy= -6.447075e-06
Time = 1.5e-05

GAMGPCG:  Solving for cellDisplacementx, Initial residual = 0, Final residual = 0, No Iterations 0
Total solver time is 0
Total solver time is 0
Total solver time is 1
GAMGPCG:  Solving for cellDisplacementy, Initial residual = 0.3193953, Final residual = 1.143841e-09, No Iterations 1
GAMGPCG:  Solving for cellDisplacementz, Initial residual = 0, Final residual = 0, No Iterations 0
volume continuity errors : volume = 4.535015, max error = 1.16491e-08, sum local = 7.047757e-15, global = 6.036281e-18
smoothSolver:  Solving for Ux, Initial residual = 0.9921558, Final residual = 5.44681e-07, No Iterations 1
smoothSolver:  Solving for Uy, Initial residual = 0.1846459, Final residual = 8.04087e-07, No Iterations 1
smoothSolver:  Solving for Uz, Initial residual = 0.8553005, Final residual = 5.946351e-07, No Iterations 1
GPU: 581 iters: 33.47882 s: 26.47586 GB/s
Total exec time 209.1033
 Total comm time 5.864883Pre time 0.2520966 Post time 5.612787
GPUBICGS:  Solving for p, Initial residual = 0.002801853, Final residual = 2.164957e-05, No Iterations 581
GPU: 215 iters: 12.42974 s: 26.38885 GB/s
Total exec time 221.5331
 Total comm time 6.212594Pre time 0.2675755 Post time 5.945018
GPUBICGS:  Solving for p, Initial residual = 0.07267271, Final residual = 0.0007187957, No Iterations 215
time step continuity errors : sum local = 3.38876e-10, global = -2.904423e-10, cumulative = -3.561759e-09
Moving mesh time step continuity errors : sum local = 3.38876e-10, global = -2.904423e-10, cumulative = -3.852201e-09
GPU: 494 iters: 28.49717 s: 26.44656 GB/s
Total exec time 250.0302
 Total comm time 7.013157Pre time 0.301405 Post time 6.711752
GPUBICGS:  Solving for p, Initial residual = 0.01684796, Final residual = 8.271088e-05, No Iterations 494
GPU: 812 iters: 46.8395 s: 26.44769 GB/s
Total exec time 296.8697
 Total comm time 8.331565Pre time 0.3562728 Post time 7.975292
GPUBICGS:  Solving for p, Initial residual = 0.007475015, Final residual = 4.356407e-08, No Iterations 812
time step continuity errors : sum local = 1.384076e-14, global = 6.49351e-16, cumulative = -3.8522e-09
Moving mesh time step continuity errors : sum local = 1.384076e-14, global = 6.49351e-16, cumulative = -3.8522e-09
smoothSolver:  Solving for k, Initial residual = 0.003835596, Final residual = 1.513363e-09, No Iterations 1
ExecutionTime = 507.14 s  ClockTime = 513 s

Courant Number mean: 7.684358e-05 max: 0.002858873 velocity magnitude: 0.9530267
yForce = -0.7537163
Y= 3.683603e-12
Vy= -6.912526e-06
Time = 2e-05

GAMGPCG:  Solving for cellDisplacementx, Initial residual = 0, Final residual = 0, No Iterations 0
Total solver time is 0
Total solver time is 0
Total solver time is 1
GAMGPCG:  Solving for cellDisplacementy, Initial residual = 1, Final residual = 1.730865e-09, No Iterations 1
GAMGPCG:  Solving for cellDisplacementz, Initial residual = 0, Final residual = 0, No Iterations 0
volume continuity errors : volume = 4.535015, max error = 1.024179e-08, sum local = 7.068511e-15, global = 1.119824e-18
smoothSolver:  Solving for Ux, Initial residual = 0.05107904, Final residual = 5.047113e-08, No Iterations 1
smoothSolver:  Solving for Uy, Initial residual = 0.01349585, Final residual = 8.961116e-08, No Iterations 1
smoothSolver:  Solving for Uz, Initial residual = 0.9881905, Final residual = 5.737177e-07, No Iterations 1
GPU: 32 iters: 1.884283 s: 25.90883 GB/s
Total exec time 298.754
 Total comm time 8.38754Pre time 0.3585255 Post time 8.029014
GPUBICGS:  Solving for p, Initial residual = 0.2263007, Final residual = 0.001698792, No Iterations 32
GPU: 144 iters: 8.32832 s: 26.37844 GB/s
Total exec time 307.0823
 Total comm time 8.63122Pre time 0.3686121 Post time 8.262608
GPUBICGS:  Solving for p, Initial residual = 0.01201762, Final residual = 0.0001195617, No Iterations 144
time step continuity errors : sum local = 3.229198e-11, global = -5.61748e-13, cumulative = -3.852761e-09
Moving mesh time step continuity errors : sum local = 3.229198e-11, global = -5.61748e-13, cumulative = -3.853323e-09
GPU: 243 iters: 14.0351 s: 26.41403 GB/s
Total exec time 321.1174
 Total comm time 9.020328Pre time 0.385784 Post time 8.634544
GPUBICGS:  Solving for p, Initial residual = 0.004293173, Final residual = 3.972601e-05, No Iterations 243
GPU: 654 iters: 37.71422 s: 26.45554 GB/s
Total exec time 358.8317
 Total comm time 10.09675Pre time 0.4317377 Post time 9.665015
GPUBICGS:  Solving for p, Initial residual = 0.001825297, Final residual = 8.616747e-08, No Iterations 654
time step continuity errors : sum local = 2.318209e-14, global = -1.83787e-15, cumulative = -3.853325e-09
Moving mesh time step continuity errors : sum local = 2.318209e-14, global = -1.83787e-15, cumulative = -3.853327e-09
smoothSolver:  Solving for k, Initial residual = 0.002273337, Final residual = 8.913553e-10, No Iterations 1
ExecutionTime = 617.11 s  ClockTime = 623 s

Courant Number mean: 7.684414e-05 max: 0.002856743 velocity magnitude: 0.9523164
yForce = 6.832964
Y= -2.032968e-11
Vy= -2.692792e-06
Time = 2.5e-05

GAMGPCG:  Solving for cellDisplacementx, Initial residual = 0, Final residual = 0, No Iterations 0
Total solver time is 0
Total solver time is 0
Total solver time is 1
GAMGPCG:  Solving for cellDisplacementy, Initial residual = 0.9310635, Final residual = 1.834032e-09, No Iterations 1
GAMGPCG:  Solving for cellDisplacementz, Initial residual = 0, Final residual = 0, No Iterations 0
volume continuity errors : volume = 4.535015, max error = 1.031547e-08, sum local = 7.070587e-15, global = -3.050088e-18
smoothSolver:  Solving for Ux, Initial residual = 0.02708406, Final residual = 1.786698e-08, No Iterations 1
smoothSolver:  Solving for Uy, Initial residual = 0.004572611, Final residual = 3.133241e-08, No Iterations 1
smoothSolver:  Solving for Uz, Initial residual = 0.8910796, Final residual = 7.011028e-07, No Iterations 1
GPU: 9 iters: 0.5548739 s: 24.74527 GB/s
Total exec time 359.3865
 Total comm time 10.11094Pre time 0.43237 Post time 9.67857
GPUBICGS:  Solving for p, Initial residual = 0.1534368, Final residual = 0.001476834, No Iterations 9
GPU: 145 iters: 8.396016 s: 26.34746 GB/s
Total exec time 367.7825
 Total comm time 10.34889Pre time 0.4425502 Post time 9.906343
GPUBICGS:  Solving for p, Initial residual = 0.003722133, Final residual = 3.623639e-05, No Iterations 145
time step continuity errors : sum local = 8.61329e-12, global = -1.92649e-14, cumulative = -3.853346e-09
Moving mesh time step continuity errors : sum local = 8.61329e-12, global = -1.92649e-14, cumulative = -3.853365e-09
GPU: 161 iters: 9.315414 s: 26.36742 GB/s
Total exec time 377.098
 Total comm time 10.62254Pre time 0.4537039 Post time 10.16883
GPUBICGS:  Solving for p, Initial residual = 0.0009400576, Final residual = 9.105082e-06, No Iterations 161
GPU: 526 iters: 30.34346 s: 26.44628 GB/s
Total exec time 407.4414
 Total comm time 11.48159Pre time 0.4897183 Post time 10.99187
GPUBICGS:  Solving for p, Initial residual = 0.000329313, Final residual = 7.945809e-08, No Iterations 526
time step continuity errors : sum local = 1.885136e-14, global = -5.412102e-15, cumulative = -3.853371e-09
Moving mesh time step continuity errors : sum local = 1.885136e-14, global = -5.412102e-15, cumulative = -3.853376e-09
smoothSolver:  Solving for k, Initial residual = 0.001554905, Final residual = 6.190544e-10, No Iterations 1
ExecutionTime = 713.79 s  ClockTime = 721 s

Courant Number mean: 7.684428e-05 max: 0.002854615 velocity magnitude: 0.9516072
yForce = -4.142655
Y= -4.018942e-11
Vy= -5.251101e-06
Time = 3e-05

GAMGPCG:  Solving for cellDisplacementx, Initial residual = 0, Final residual = 0, No Iterations 0
Total solver time is 0
Total solver time is 0
Total solver time is 1
GAMGPCG:  Solving for cellDisplacementy, Initial residual = 0.5405213, Final residual = 8.589411e-10, No Iterations 1
GAMGPCG:  Solving for cellDisplacementz, Initial residual = 0, Final residual = 0, No Iterations 0
volume continuity errors : volume = 4.535015, max error = 1.040568e-08, sum local = 7.113162e-15, global = 3.27225e-18
smoothSolver:  Solving for Ux, Initial residual = 0.01761722, Final residual = 8.838981e-09, No Iterations 1
smoothSolver:  Solving for Uy, Initial residual = 0.001238775, Final residual = 1.698e-08, No Iterations 1
smoothSolver:  Solving for Uz, Initial residual = 0.3495732, Final residual = 1.737625e-06, No Iterations 1
GPU: 3 iters: 0.2091935 s: 21.87847 GB/s
Total exec time 407.6506
 Total comm time 11.4869Pre time 0.489953 Post time 10.99694
GPUBICGS:  Solving for p, Initial residual = 0.1088523, Final residual = 0.0006855186, No Iterations 3
GPU: 47 iters: 2.746742 s: 26.10502 GB/s
Total exec time 410.3973
 Total comm time 11.56368Pre time 0.4932591 Post time 11.07042
GPUBICGS:  Solving for p, Initial residual = 0.001310562, Final residual = 1.270981e-05, No Iterations 47
time step continuity errors : sum local = 2.726558e-12, global = -9.975074e-15, cumulative = -3.853386e-09
Moving mesh time step continuity errors : sum local = 2.726558e-12, global = -9.975074e-15, cumulative = -3.853396e-09
GPU: 33 iters: 1.941259 s: 25.9343 GB/s
Total exec time 412.3386
 Total comm time 11.61566Pre time 0.4955998 Post time 11.12006
GPUBICGS:  Solving for p, Initial residual = 0.000265955, Final residual = 9.950899e-06, No Iterations 33
GPU: 520 iters: 29.98524 s: 26.45695 GB/s
Total exec time 442.3239
 Total comm time 12.45354Pre time 0.5315162 Post time 11.92202
GPUBICGS:  Solving for p, Initial residual = 0.0001041087, Final residual = 9.542201e-08, No Iterations 520
time step continuity errors : sum local = 2.046267e-14, global = -1.286442e-14, cumulative = -3.853409e-09
Moving mesh time step continuity errors : sum local = 2.046267e-14, global = -1.286442e-14, cumulative = -3.853422e-09
smoothSolver:  Solving for k, Initial residual = 0.001156976, Final residual = 4.665416e-10, No Iterations 1
ExecutionTime = 797.27 s  ClockTime = 805 s

Courant Number mean: 7.684432e-05 max: 0.002852247 velocity magnitude: 0.9508177
yForce = 0.7236193
Y= -6.532772e-11
Vy= -4.804219e-06
Time = 3.5e-05

GAMGPCG:  Solving for cellDisplacementx, Initial residual = 0, Final residual = 0, No Iterations 0
Total solver time is 0
Total solver time is 0
Total solver time is 1
GAMGPCG:  Solving for cellDisplacementy, Initial residual = 0.4559587, Final residual = 6.504477e-10, No Iterations 1
GAMGPCG:  Solving for cellDisplacementz, Initial residual = 0, Final residual = 0, No Iterations 0
volume continuity errors : volume = 4.535015, max error = 1.15476e-08, sum local = 7.124175e-15, global = -3.071032e-18
smoothSolver:  Solving for Ux, Initial residual = 0.01352799, Final residual = 6.763085e-09, No Iterations 1
smoothSolver:  Solving for Uy, Initial residual = 0.0009611247, Final residual = 1.252107e-08, No Iterations 1
smoothSolver:  Solving for Uz, Initial residual = 0.3740934, Final residual = 2.171029e-06, No Iterations 1
GPU: 2 iters: 0.1513587 s: 20.15889 GB/s
Total exec time 442.4752
 Total comm time 12.45689Pre time 0.5316957 Post time 11.92519
GPUBICGS:  Solving for p, Initial residual = 0.09114376, Final residual = 0.0003506785, No Iterations 2
GPU: 23 iters: 1.359303 s: 25.81402 GB/s
Total exec time 443.8345
 Total comm time 12.49481Pre time 0.5333283 Post time 11.96148
GPUBICGS:  Solving for p, Initial residual = 0.0005311547, Final residual = 9.894397e-06, No Iterations 23
time step continuity errors : sum local = 1.949096e-12, global = -2.13782e-14, cumulative = -3.853443e-09
Moving mesh time step continuity errors : sum local = 1.949096e-12, global = -2.13782e-14, cumulative = -3.853464e-09
GPU: 9 iters: 0.5538052 s: 24.79302 GB/s
Total exec time 444.3883
 Total comm time 12.50922Pre time 0.5339981 Post time 11.97523
GPUBICGS:  Solving for p, Initial residual = 8.29771e-05, Final residual = 9.098312e-06, No Iterations 9
GPU: 570 iters: 32.80888 s: 26.50497 GB/s
Total exec time 477.1972
 Total comm time 13.44445Pre time 0.5736182 Post time 12.87083
GPUBICGS:  Solving for p, Initial residual = 2.90548e-05, Final residual = 8.829588e-08, No Iterations 570
time step continuity errors : sum local = 1.739093e-14, global = 2.177618e-15, cumulative = -3.853462e-09
Moving mesh time step continuity errors : sum local = 1.739093e-14, global = 2.177618e-15, cumulative = -3.85346e-09
smoothSolver:  Solving for k, Initial residual = 0.0009097833, Final residual = 3.836374e-10, No Iterations 1
ExecutionTime = 879.06 s  ClockTime = 887 s

Courant Number mean: 7.684441e-05 max: 0.002849503 velocity magnitude: 0.9499029
yForce = 0.791173
Y= -8.812731e-11
Vy= -4.31562e-06
Time = 4e-05

GAMGPCG:  Solving for cellDisplacementx, Initial residual = 0, Final residual = 0, No Iterations 0
Total solver time is 0
Total solver time is 0
Total solver time is 1
GAMGPCG:  Solving for cellDisplacementy, Initial residual = 0.3262829, Final residual = 5.07941e-10, No Iterations 1
GAMGPCG:  Solving for cellDisplacementz, Initial residual = 0, Final residual = 0, No Iterations 0
volume continuity errors : volume = 4.535015, max error = 1.031097e-08, sum local = 7.128445e-15, global = 2.195293e-18
smoothSolver:  Solving for Ux, Initial residual = 0.01095398, Final residual = 5.433189e-09, No Iterations 1
smoothSolver:  Solving for Uy, Initial residual = 0.0008056677, Final residual = 9.998199e-09, No Iterations 1
smoothSolver:  Solving for Uz, Initial residual = 0.4838097, Final residual = 2.596735e-06, No Iterations 1
GPU: 2 iters: 0.1511535 s: 20.18625 GB/s
Total exec time 477.3484
 Total comm time 13.44779Pre time 0.5737933 Post time 12.87399
GPUBICGS:  Solving for p, Initial residual = 0.07497305, Final residual = 0.0001333295, No Iterations 2
GPU: 9 iters: 0.5552776 s: 24.72728 GB/s
Total exec time 477.9036
 Total comm time 13.46198Pre time 0.5744285 Post time 12.88755
GPUBICGS:  Solving for p, Initial residual = 0.0002795975, Final residual = 9.903614e-06, No Iterations 9
time step continuity errors : sum local = 1.812438e-12, global = 2.46545e-14, cumulative = -3.853435e-09
Moving mesh time step continuity errors : sum local = 1.812438e-12, global = 2.46545e-14, cumulative = -3.853411e-09
GPU: 3 iters: 0.2081257 s: 21.99072 GB/s
Total exec time 478.1118
 Total comm time 13.46811Pre time 0.5746712 Post time 12.89344
GPUBICGS:  Solving for p, Initial residual = 3.631011e-05, Final residual = 9.374299e-06, No Iterations 3
GPU: 261 iters: 15.0445 s: 26.46713 GB/s
Total exec time 493.1563
 Total comm time 13.8894Pre time 0.5924658 Post time 13.29693
GPUBICGS:  Solving for p, Initial residual = 1.549472e-05, Final residual = 9.141867e-08, No Iterations 261
time step continuity errors : sum local = 1.672948e-14, global = 4.731809e-15, cumulative = -3.853406e-09
Moving mesh time step continuity errors : sum local = 1.672948e-14, global = 4.731809e-15, cumulative = -3.853401e-09
smoothSolver:  Solving for k, Initial residual = 0.0007437211, Final residual = 3.250583e-10, No Iterations 1
ExecutionTime = 941.9 s  ClockTime = 950 s

Courant Number mean: 7.684441e-05 max: 0.002846383 velocity magnitude: 0.9488628
yForce = -0.6853014
Y= -1.107634e-10
Vy= -4.738824e-06
Time = 4.5e-05

GAMGPCG:  Solving for cellDisplacementx, Initial residual = 0, Final residual = 0, No Iterations 0
Total solver time is 0
Total solver time is 0
Total solver time is 1
GAMGPCG:  Solving for cellDisplacementy, Initial residual = 0.2676785, Final residual = 3.507879e-10, No Iterations 1
GAMGPCG:  Solving for cellDisplacementz, Initial residual = 0, Final residual = 0, No Iterations 0
volume continuity errors : volume = 4.535015, max error = 1.00919e-08, sum local = 7.135513e-15, global = -1.159296e-18
smoothSolver:  Solving for Ux, Initial residual = 0.00935946, Final residual = 4.561352e-09, No Iterations 1
smoothSolver:  Solving for Uy, Initial residual = 0.0006808935, Final residual = 8.222079e-09, No Iterations 1
smoothSolver:  Solving for Uz, Initial residual = 0.4600561, Final residual = 1.881557e-06, No Iterations 1
GPU: 2 iters: 0.1502051 s: 20.31371 GB/s
Total exec time 493.3065
 Total comm time 13.89278Pre time 0.5926427 Post time 13.30014
GPUBICGS:  Solving for p, Initial residual = 0.0627705, Final residual = 9.972904e-05, No Iterations 2
GPU: 8 iters: 0.4966106 s: 24.57638 GB/s
Total exec time 493.8031
 Total comm time 13.90565Pre time 0.5932434 Post time 13.31241
GPUBICGS:  Solving for p, Initial residual = 0.0002070072, Final residual = 9.200521e-06, No Iterations 8
time step continuity errors : sum local = 1.577908e-12, global = 3.161349e-15, cumulative = -3.853398e-09
Moving mesh time step continuity errors : sum local = 1.577908e-12, global = 3.161349e-15, cumulative = -3.853395e-09
GPU: 2 iters: 0.1522905 s: 20.03554 GB/s
Total exec time 493.9554
 Total comm time 13.90862Pre time 0.5934104 Post time 13.31521
GPUBICGS:  Solving for p, Initial residual = 2.340195e-05, Final residual = 9.430037e-06, No Iterations 2
GPU: 216 iters: 12.48779 s: 26.38834 GB/s
Total exec time 506.4432
 Total comm time 14.25961Pre time 0.6083458 Post time 13.65127
GPUBICGS:  Solving for p, Initial residual = 1.149442e-05, Final residual = 9.817645e-08, No Iterations 216
time step continuity errors : sum local = 1.683692e-14, global = 1.298149e-14, cumulative = -3.853382e-09
Moving mesh time step continuity errors : sum local = 1.683692e-14, global = 1.298149e-14, cumulative = -3.853369e-09
smoothSolver:  Solving for k, Initial residual = 0.0006256176, Final residual = 2.83775e-10, No Iterations 1
ExecutionTime = 1002.1 s  ClockTime = 1011 s

Courant Number mean: 7.684441e-05 max: 0.002842882 velocity magnitude: 0.948246
yForce = 0.1958266
Y= -1.341552e-10
Vy= -4.617883e-06
Time = 5e-05

GAMGPCG:  Solving for cellDisplacementx, Initial residual = 0, Final residual = 0, No Iterations 0
Total solver time is 0
Total solver time is 0
Total solver time is 1
GAMGPCG:  Solving for cellDisplacementy, Initial residual = 0.2323041, Final residual = 3.408442e-10, No Iterations 1
GAMGPCG:  Solving for cellDisplacementz, Initial residual = 0, Final residual = 0, No Iterations 0
volume continuity errors : volume = 4.535015, max error = 1.042485e-08, sum local = 7.135043e-15, global = -6.986817e-19
smoothSolver:  Solving for Ux, Initial residual = 0.008278491, Final residual = 3.933805e-09, No Iterations 1
smoothSolver:  Solving for Uy, Initial residual = 0.0005947129, Final residual = 6.913126e-09, No Iterations 1
slurmstepd: *** JOB 8430 ON ivb124 CANCELLED AT 2016-05-27T20:32:34 DUE TO TIME LIMIT ***
