 Data for JOB [52713,1] offset 0

 ========================   JOB MAP   ========================

 Data for node: ivb112	Num slots: 2	Max slots: 0	Num procs: 2
 	Process OMPI jobid: [52713,1] App: 0 Process rank: 0
 	Process OMPI jobid: [52713,1] App: 0 Process rank: 1

 Data for node: ivb113	Num slots: 2	Max slots: 0	Num procs: 2
 	Process OMPI jobid: [52713,1] App: 0 Process rank: 2
 	Process OMPI jobid: [52713,1] App: 0 Process rank: 3

 =============================================================
[ivb112:37407] MCW rank 0 bound to socket 0[core 0[hwt 0]]: [B/././././././././.][./././././././././.]
[ivb112:37407] MCW rank 1 bound to socket 0[core 1[hwt 0]]: [./B/./././././././.][./././././././././.]
[ivb113:18724] MCW rank 3 bound to socket 0[core 1[hwt 0]]: [./B/./././././././.][./././././././././.]
[ivb113:18724] MCW rank 2 bound to socket 0[core 0[hwt 0]]: [B/././././././././.][./././././././././.]
0
1
1
0
/*---------------------------------------------------------------------------*\
| =========                 |                                                 |
| \\      /  F ield         | foam-extend: Open Source CFD                    |
|  \\    /   O peration     | Version:     3.1                                |
|   \\  /    A nd           | Web:         http://www.extend-project.de       |
|    \\/     M anipulation  |                                                 |
\*---------------------------------------------------------------------------*/
Build    : 3.1-e2da948002a2
Exec     : pimpleDyMFoam -parallel
Date     : May 27 2016
Time     : 20:32:46
Host     : ivb112
PID      : 37436
CtrlDict : /home-2/vplatonov/foam/foam-extend-3.1/etc/controlDict
Case     : /home/vplatonov/tests/3D-mesh1-of3.1
nProcs   : 4
Slaves : 
3
(
ivb112.37437
ivb113.18748
ivb113.18747
)

Pstream initialized with:
    floatTransfer     : 0
    nProcsSimpleSum   : 0
    commsType         : blocking
SigFpe   : Enabling floating point exception trapping (FOAM_SIGFPE).

// * * * * * * * * * * * * * * * * * * * * * * * * * * * * * * * * * * * * * //
Create time

Create dynamic mesh for time = 0

Selecting dynamicFvMesh dynamicMotionSolverFvMesh
Selecting motion solver: displacementLaplacian
Selecting motion diffusion: quadratic
Selecting motion diffusion: inverseDistance
Reading field p

Reading field U

Reading/calculating face flux field phi

Selecting incompressible transport model Newtonian
Selecting turbulence model type LESModel
Selecting LES turbulence model oneEqEddy
oneEqEddyCoeffs
{
    ce              1.048;
    ck              0.094;
}

Reading field rAU if present


Starting time loop

Courant Number mean: 0 max: 0.0007592825 velocity magnitude: 0.4779
Reading old state
Before setting displacements
GAMGPCG:  Solving for cellDisplacementx, Initial residual = 0, Final residual = 0, No Iterations 0
GAMGPCG:  Solving for cellDisplacementy, Initial residual = 0, Final residual = 0, No Iterations 0
GAMGPCG:  Solving for cellDisplacementz, Initial residual = 0, Final residual = 0, No Iterations 0
Time = 5e-06

GAMGPCG:  Solving for cellDisplacementx, Initial residual = 0, Final residual = 0, No Iterations 0
GAMGPCG:  Solving for cellDisplacementy, Initial residual = 0, Final residual = 0, No Iterations 0
GAMGPCG:  Solving for cellDisplacementz, Initial residual = 0, Final residual = 0, No Iterations 0
volume continuity errors : volume = 4.535015, max error = 0, sum local = 0, global = 0
smoothSolver:  Solving for Ux, Initial residual = 1, Final residual = 9.457309e-09, No Iterations 1
smoothSolver:  Solving for Uy, Initial residual = 1, Final residual = 1.115892e-08, No Iterations 1
smoothSolver:  Solving for Uz, Initial residual = 0.9999962, Final residual = 4.021583e-08, No Iterations 1
Created persistent data with name p
Computing AINV with droptol 0.02
GPU: 548 iters: 25.04205 s: 33.38526 GB/s
Total exec time 25.04205
 Total comm time 0.0338104Pre time 0.03039923 Post time 0.003411168
GPUBICGS:  Solving for p, Initial residual = 1, Final residual = 0.008884487, No Iterations 548
Computing AINV with droptol 0.02
GPU: 159 iters: 7.594019 s: 31.94254 GB/s
Total exec time 32.63607
 Total comm time 0.04411338Pre time 0.03970694 Post time 0.004406432
GPUBICGS:  Solving for p, Initial residual = 0.0004701326, Final residual = 9.736385e-06, No Iterations 159
time step continuity errors : sum local = 2.186118e-09, global = -1.613332e-09, cumulative = -1.613332e-09
Moving mesh time step continuity errors : sum local = 2.186118e-09, global = -1.613332e-09, cumulative = -3.226664e-09
GPU: 42 iters: 2.022189 s: 31.6863 GB/s
Total exec time 34.65825
 Total comm time 0.04666259Pre time 0.04199443 Post time 0.00466816
GPUBICGS:  Solving for p, Initial residual = 0.0001105527, Final residual = 9.194879e-06, No Iterations 42
GPU: 520 iters: 24.73241 s: 32.07605 GB/s
Total exec time 59.39066
 Total comm time 0.08053901Pre time 0.07264458 Post time 0.007894432
GPUBICGS:  Solving for p, Initial residual = 4.597612e-05, Final residual = 9.367612e-08, No Iterations 520
time step continuity errors : sum local = 2.104894e-11, global = -4.506919e-13, cumulative = -3.227115e-09
Moving mesh time step continuity errors : sum local = 2.104894e-11, global = -4.506919e-13, cumulative = -3.227565e-09
smoothSolver:  Solving for k, Initial residual = 1, Final residual = 1.499339e-11, No Iterations 2
ExecutionTime = 171.36 s  ClockTime = 173 s

Courant Number mean: 7.683959e-05 max: 0.002864527 velocity magnitude: 0.9549114
yForce = 17.22937
Y= 2.660017e-11
Vy= 1.064006e-05
Time = 1e-05

GAMGPCG:  Solving for cellDisplacementx, Initial residual = 0, Final residual = 0, No Iterations 0
Total solver time is 0
Total solver time is 0
Total solver time is 1
GAMGPCG:  Solving for cellDisplacementy, Initial residual = 1, Final residual = 1.451243e-09, No Iterations 1
GAMGPCG:  Solving for cellDisplacementz, Initial residual = 0, Final residual = 0, No Iterations 0
volume continuity errors : volume = 4.535015, max error = 1.169259e-08, sum local = 6.185373e-15, global = -2.9099e-18
smoothSolver:  Solving for Ux, Initial residual = 0.9975418, Final residual = 5.466747e-07, No Iterations 1
smoothSolver:  Solving for Uy, Initial residual = 0.3325961, Final residual = 1.323275e-06, No Iterations 1
smoothSolver:  Solving for Uz, Initial residual = 0.332973, Final residual = 2.581116e-07, No Iterations 1
GPU: 529 iters: 25.037 s: 32.23423 GB/s
Total exec time 84.42766
 Total comm time 0.1139423Pre time 0.1027588 Post time 0.01118352
GPUBICGS:  Solving for p, Initial residual = 0.003644663, Final residual = 3.443907e-05, No Iterations 529
GPU: 503 iters: 23.92331 s: 32.07677 GB/s
Total exec time 108.351
 Total comm time 0.1469978Pre time 0.1326857 Post time 0.0143121
GPUBICGS:  Solving for p, Initial residual = 0.001423439, Final residual = 1.405008e-05, No Iterations 503
time step continuity errors : sum local = 1.041885e-09, global = -2.172264e-11, cumulative = -3.249288e-09
Moving mesh time step continuity errors : sum local = 1.041885e-09, global = -2.172264e-11, cumulative = -3.271011e-09
GPU: 150 iters: 7.158197 s: 31.96918 GB/s
Total exec time 115.5092
 Total comm time 0.1566636Pre time 0.1414195 Post time 0.01524406
GPUBICGS:  Solving for p, Initial residual = 0.0003141732, Final residual = 6.4548e-06, No Iterations 150
GPU: 599 iters: 28.52717 s: 32.03407 GB/s
Total exec time 144.0363
 Total comm time 0.196284Pre time 0.1754889 Post time 0.02079514
GPUBICGS:  Solving for p, Initial residual = 0.0001163798, Final residual = 5.409428e-08, No Iterations 599
time step continuity errors : sum local = 4.0618e-12, global = -1.527768e-13, cumulative = -3.271164e-09
Moving mesh time step continuity errors : sum local = 4.0618e-12, global = -1.527768e-13, cumulative = -3.271316e-09
smoothSolver:  Solving for k, Initial residual = 0.008782366, Final residual = 3.636359e-09, No Iterations 1
ExecutionTime = 298.59 s  ClockTime = 301 s

Courant Number mean: 7.68432e-05 max: 0.002857015 velocity magnitude: 0.9524071
yForce = -27.66904
Y= 3.708261e-11
Vy= -6.447075e-06
Time = 1.5e-05

GAMGPCG:  Solving for cellDisplacementx, Initial residual = 0, Final residual = 0, No Iterations 0
Total solver time is 0
Total solver time is 0
Total solver time is 1
GAMGPCG:  Solving for cellDisplacementy, Initial residual = 0.3193953, Final residual = 1.143841e-09, No Iterations 1
GAMGPCG:  Solving for cellDisplacementz, Initial residual = 0, Final residual = 0, No Iterations 0
volume continuity errors : volume = 4.535015, max error = 1.16491e-08, sum local = 7.047757e-15, global = 6.036281e-18
smoothSolver:  Solving for Ux, Initial residual = 0.9921558, Final residual = 5.44681e-07, No Iterations 1
smoothSolver:  Solving for Uy, Initial residual = 0.1846459, Final residual = 8.04087e-07, No Iterations 1
smoothSolver:  Solving for Uz, Initial residual = 0.8553005, Final residual = 5.946351e-07, No Iterations 1
GPU: 581 iters: 27.68963 s: 32.01127 GB/s
Total exec time 171.726
 Total comm time 0.2331922Pre time 0.2087757 Post time 0.02441648
GPUBICGS:  Solving for p, Initial residual = 0.002801853, Final residual = 2.164957e-05, No Iterations 581
GPU: 215 iters: 10.29562 s: 31.85883 GB/s
Total exec time 182.0216
 Total comm time 0.2507095Pre time 0.2211382 Post time 0.02957126
GPUBICGS:  Solving for p, Initial residual = 0.07267271, Final residual = 0.0007187957, No Iterations 215
time step continuity errors : sum local = 3.38876e-10, global = -2.904423e-10, cumulative = -3.561759e-09
Moving mesh time step continuity errors : sum local = 3.38876e-10, global = -2.904423e-10, cumulative = -3.852201e-09
GPU: 494 iters: 23.48423 s: 32.09183 GB/s
Total exec time 205.5058
 Total comm time 0.2819272Pre time 0.2492892 Post time 0.03263805
GPUBICGS:  Solving for p, Initial residual = 0.01684796, Final residual = 8.271088e-05, No Iterations 494
GPU: 812 iters: 38.58599 s: 32.10483 GB/s
Total exec time 244.0918
 Total comm time 0.3326956Pre time 0.2950131 Post time 0.0376825
GPUBICGS:  Solving for p, Initial residual = 0.007475015, Final residual = 4.356407e-08, No Iterations 812
time step continuity errors : sum local = 1.384076e-14, global = 6.49351e-16, cumulative = -3.8522e-09
Moving mesh time step continuity errors : sum local = 1.384076e-14, global = 6.49351e-16, cumulative = -3.8522e-09
smoothSolver:  Solving for k, Initial residual = 0.003835596, Final residual = 1.513363e-09, No Iterations 1
ExecutionTime = 440.57 s  ClockTime = 444 s

Courant Number mean: 7.684358e-05 max: 0.002858873 velocity magnitude: 0.9530267
yForce = -0.7537163
Y= 3.683603e-12
Vy= -6.912526e-06
Time = 2e-05

GAMGPCG:  Solving for cellDisplacementx, Initial residual = 0, Final residual = 0, No Iterations 0
Total solver time is 0
Total solver time is 0
Total solver time is 1
GAMGPCG:  Solving for cellDisplacementy, Initial residual = 1, Final residual = 1.730865e-09, No Iterations 1
GAMGPCG:  Solving for cellDisplacementz, Initial residual = 0, Final residual = 0, No Iterations 0
volume continuity errors : volume = 4.535015, max error = 1.024179e-08, sum local = 7.068511e-15, global = 1.119824e-18
smoothSolver:  Solving for Ux, Initial residual = 0.05107904, Final residual = 5.047113e-08, No Iterations 1
smoothSolver:  Solving for Uy, Initial residual = 0.01349585, Final residual = 8.961116e-08, No Iterations 1
smoothSolver:  Solving for Uz, Initial residual = 0.9881905, Final residual = 5.737177e-07, No Iterations 1
GPU: 32 iters: 1.538739 s: 31.727 GB/s
Total exec time 245.6306
 Total comm time 0.3347495Pre time 0.2968666 Post time 0.03788291
GPUBICGS:  Solving for p, Initial residual = 0.2263007, Final residual = 0.001698792, No Iterations 32
GPU: 144 iters: 6.848603 s: 32.07779 GB/s
Total exec time 252.4792
 Total comm time 0.3438642Pre time 0.3050728 Post time 0.03879142
GPUBICGS:  Solving for p, Initial residual = 0.01201762, Final residual = 0.0001195617, No Iterations 144
time step continuity errors : sum local = 3.229198e-11, global = -5.61748e-13, cumulative = -3.852761e-09
Moving mesh time step continuity errors : sum local = 3.229198e-11, global = -5.61748e-13, cumulative = -3.853323e-09
GPU: 243 iters: 11.54545 s: 32.10994 GB/s
Total exec time 264.0246
 Total comm time 0.3592987Pre time 0.3189905 Post time 0.04030826
GPUBICGS:  Solving for p, Initial residual = 0.004293173, Final residual = 3.972601e-05, No Iterations 243
GPU: 654 iters: 31.0349 s: 32.14929 GB/s
Total exec time 295.0595
 Total comm time 0.4030341Pre time 0.3562394 Post time 0.04679466
GPUBICGS:  Solving for p, Initial residual = 0.001825297, Final residual = 8.616747e-08, No Iterations 654
time step continuity errors : sum local = 2.318209e-14, global = -1.83787e-15, cumulative = -3.853325e-09
Moving mesh time step continuity errors : sum local = 2.318209e-14, global = -1.83787e-15, cumulative = -3.853327e-09
smoothSolver:  Solving for k, Initial residual = 0.002273337, Final residual = 8.913553e-10, No Iterations 1
ExecutionTime = 531.9 s  ClockTime = 536 s

Courant Number mean: 7.684414e-05 max: 0.002856743 velocity magnitude: 0.9523164
yForce = 6.832964
Y= -2.032968e-11
Vy= -2.692792e-06
Time = 2.5e-05

GAMGPCG:  Solving for cellDisplacementx, Initial residual = 0, Final residual = 0, No Iterations 0
Total solver time is 0
Total solver time is 0
Total solver time is 1
GAMGPCG:  Solving for cellDisplacementy, Initial residual = 0.9310635, Final residual = 1.834032e-09, No Iterations 1
GAMGPCG:  Solving for cellDisplacementz, Initial residual = 0, Final residual = 0, No Iterations 0
volume continuity errors : volume = 4.535015, max error = 1.031547e-08, sum local = 7.070587e-15, global = -3.050088e-18
smoothSolver:  Solving for Ux, Initial residual = 0.02708406, Final residual = 1.786698e-08, No Iterations 1
smoothSolver:  Solving for Uy, Initial residual = 0.004572611, Final residual = 3.133241e-08, No Iterations 1
smoothSolver:  Solving for Uz, Initial residual = 0.8910796, Final residual = 7.011028e-07, No Iterations 1
GPU: 9 iters: 0.4617112 s: 29.73829 GB/s
Total exec time 295.5212
 Total comm time 0.4036516Pre time 0.3567982 Post time 0.04685341
GPUBICGS:  Solving for p, Initial residual = 0.1534368, Final residual = 0.001476834, No Iterations 9
GPU: 145 iters: 6.947375 s: 31.84133 GB/s
Total exec time 302.4686
 Total comm time 0.4128014Pre time 0.3650455 Post time 0.04775594
GPUBICGS:  Solving for p, Initial residual = 0.003722133, Final residual = 3.623639e-05, No Iterations 145
time step continuity errors : sum local = 8.61329e-12, global = -1.92649e-14, cumulative = -3.853346e-09
Moving mesh time step continuity errors : sum local = 8.61329e-12, global = -1.92649e-14, cumulative = -3.853365e-09
GPU: 161 iters: 7.716002 s: 31.833 GB/s
Total exec time 310.1846
 Total comm time 0.4270241Pre time 0.3744255 Post time 0.05259856
GPUBICGS:  Solving for p, Initial residual = 0.0009400576, Final residual = 9.105082e-06, No Iterations 161
GPU: 526 iters: 25.13374 s: 31.92806 GB/s
Total exec time 335.3183
 Total comm time 0.4704695Pre time 0.4046036 Post time 0.06586589
GPUBICGS:  Solving for p, Initial residual = 0.000329313, Final residual = 7.945809e-08, No Iterations 526
time step continuity errors : sum local = 1.885136e-14, global = -5.412102e-15, cumulative = -3.853371e-09
Moving mesh time step continuity errors : sum local = 1.885136e-14, global = -5.412102e-15, cumulative = -3.853376e-09
smoothSolver:  Solving for k, Initial residual = 0.001554905, Final residual = 6.190544e-10, No Iterations 1
ExecutionTime = 614.06 s  ClockTime = 618 s

Courant Number mean: 7.684428e-05 max: 0.002854615 velocity magnitude: 0.9516072
yForce = -4.142655
Y= -4.018942e-11
Vy= -5.251101e-06
Time = 3e-05

GAMGPCG:  Solving for cellDisplacementx, Initial residual = 0, Final residual = 0, No Iterations 0
Total solver time is 0
Total solver time is 0
Total solver time is 1
GAMGPCG:  Solving for cellDisplacementy, Initial residual = 0.5405213, Final residual = 8.589411e-10, No Iterations 1
GAMGPCG:  Solving for cellDisplacementz, Initial residual = 0, Final residual = 0, No Iterations 0
volume continuity errors : volume = 4.535015, max error = 1.040568e-08, sum local = 7.113162e-15, global = 3.27225e-18
smoothSolver:  Solving for Ux, Initial residual = 0.01761722, Final residual = 8.838981e-09, No Iterations 1
smoothSolver:  Solving for Uy, Initial residual = 0.001238775, Final residual = 1.698e-08, No Iterations 1
smoothSolver:  Solving for Uz, Initial residual = 0.3495732, Final residual = 1.737625e-06, No Iterations 1
GPU: 3 iters: 0.1736004 s: 26.3642 GB/s
Total exec time 335.4919
 Total comm time 0.4706892Pre time 0.4048017 Post time 0.06588749
GPUBICGS:  Solving for p, Initial residual = 0.1088523, Final residual = 0.0006855186, No Iterations 3
GPU: 47 iters: 2.276509 s: 31.49723 GB/s
Total exec time 337.7685
 Total comm time 0.4737155Pre time 0.4075316 Post time 0.0661839
GPUBICGS:  Solving for p, Initial residual = 0.001310562, Final residual = 1.270981e-05, No Iterations 47
time step continuity errors : sum local = 2.726558e-12, global = -9.975074e-15, cumulative = -3.853386e-09
Moving mesh time step continuity errors : sum local = 2.726558e-12, global = -9.975074e-15, cumulative = -3.853396e-09
GPU: 33 iters: 1.604445 s: 31.37857 GB/s
Total exec time 339.3729
 Total comm time 0.4758464Pre time 0.4094542 Post time 0.06639216
GPUBICGS:  Solving for p, Initial residual = 0.000265955, Final residual = 9.950899e-06, No Iterations 33
GPU: 520 iters: 24.88834 s: 31.87508 GB/s
Total exec time 364.2612
 Total comm time 0.5086542Pre time 0.4390244 Post time 0.06962986
GPUBICGS:  Solving for p, Initial residual = 0.0001041087, Final residual = 9.542201e-08, No Iterations 520
time step continuity errors : sum local = 2.046267e-14, global = -1.286442e-14, cumulative = -3.853409e-09
Moving mesh time step continuity errors : sum local = 2.046267e-14, global = -1.286442e-14, cumulative = -3.853422e-09
smoothSolver:  Solving for k, Initial residual = 0.001156976, Final residual = 4.665416e-10, No Iterations 1
ExecutionTime = 684.05 s  ClockTime = 689 s

Courant Number mean: 7.684432e-05 max: 0.002852247 velocity magnitude: 0.9508177
yForce = 0.7236193
Y= -6.532772e-11
Vy= -4.804219e-06
Time = 3.5e-05

GAMGPCG:  Solving for cellDisplacementx, Initial residual = 0, Final residual = 0, No Iterations 0
Total solver time is 0
Total solver time is 0
Total solver time is 1
GAMGPCG:  Solving for cellDisplacementy, Initial residual = 0.4559587, Final residual = 6.504477e-10, No Iterations 1
GAMGPCG:  Solving for cellDisplacementz, Initial residual = 0, Final residual = 0, No Iterations 0
volume continuity errors : volume = 4.535015, max error = 1.15476e-08, sum local = 7.124175e-15, global = -3.071032e-18
smoothSolver:  Solving for Ux, Initial residual = 0.01352799, Final residual = 6.763085e-09, No Iterations 1
smoothSolver:  Solving for Uy, Initial residual = 0.0009611247, Final residual = 1.252107e-08, No Iterations 1
smoothSolver:  Solving for Uz, Initial residual = 0.3740934, Final residual = 2.171029e-06, No Iterations 1
GPU: 2 iters: 0.125296 s: 24.35213 GB/s
Total exec time 364.3865
 Total comm time 0.5088096Pre time 0.4391642 Post time 0.06964541
GPUBICGS:  Solving for p, Initial residual = 0.09114376, Final residual = 0.0003506785, No Iterations 2
GPU: 23 iters: 1.117365 s: 31.40342 GB/s
Total exec time 365.5039
 Total comm time 0.510202Pre time 0.440411 Post time 0.06979104
GPUBICGS:  Solving for p, Initial residual = 0.0005311547, Final residual = 9.894397e-06, No Iterations 23
time step continuity errors : sum local = 1.949096e-12, global = -2.13782e-14, cumulative = -3.853443e-09
Moving mesh time step continuity errors : sum local = 1.949096e-12, global = -2.13782e-14, cumulative = -3.853464e-09
GPU: 9 iters: 0.4531333 s: 30.30125 GB/s
Total exec time 365.957
 Total comm time 0.5107988Pre time 0.4409477 Post time 0.06985101
GPUBICGS:  Solving for p, Initial residual = 8.29771e-05, Final residual = 9.098312e-06, No Iterations 9
GPU: 570 iters: 27.11159 s: 32.07479 GB/s
Total exec time 393.0686
 Total comm time 0.5458797Pre time 0.4724853 Post time 0.0733944
GPUBICGS:  Solving for p, Initial residual = 2.90548e-05, Final residual = 8.829588e-08, No Iterations 570
time step continuity errors : sum local = 1.739093e-14, global = 2.177618e-15, cumulative = -3.853462e-09
Moving mesh time step continuity errors : sum local = 1.739093e-14, global = 2.177618e-15, cumulative = -3.85346e-09
smoothSolver:  Solving for k, Initial residual = 0.0009097833, Final residual = 3.836374e-10, No Iterations 1
ExecutionTime = 755.02 s  ClockTime = 760 s

Courant Number mean: 7.684441e-05 max: 0.002849503 velocity magnitude: 0.9499029
yForce = 0.791173
Y= -8.812731e-11
Vy= -4.31562e-06
Time = 4e-05

GAMGPCG:  Solving for cellDisplacementx, Initial residual = 0, Final residual = 0, No Iterations 0
Total solver time is 0
Total solver time is 0
Total solver time is 1
GAMGPCG:  Solving for cellDisplacementy, Initial residual = 0.3262829, Final residual = 5.07941e-10, No Iterations 1
GAMGPCG:  Solving for cellDisplacementz, Initial residual = 0, Final residual = 0, No Iterations 0
volume continuity errors : volume = 4.535015, max error = 1.031097e-08, sum local = 7.128445e-15, global = 2.195293e-18
smoothSolver:  Solving for Ux, Initial residual = 0.01095398, Final residual = 5.433189e-09, No Iterations 1
smoothSolver:  Solving for Uy, Initial residual = 0.0008056677, Final residual = 9.998199e-09, No Iterations 1
smoothSolver:  Solving for Uz, Initial residual = 0.4838097, Final residual = 2.596735e-06, No Iterations 1
GPU: 2 iters: 0.1257534 s: 24.26355 GB/s
Total exec time 393.1944
 Total comm time 0.5460373Pre time 0.4726276 Post time 0.07340976
GPUBICGS:  Solving for p, Initial residual = 0.07497305, Final residual = 0.0001333295, No Iterations 2
GPU: 9 iters: 0.4580529 s: 29.97581 GB/s
Total exec time 393.6524
 Total comm time 0.546644Pre time 0.4731752 Post time 0.07346877
GPUBICGS:  Solving for p, Initial residual = 0.0002795975, Final residual = 9.903614e-06, No Iterations 9
time step continuity errors : sum local = 1.812438e-12, global = 2.46545e-14, cumulative = -3.853435e-09
Moving mesh time step continuity errors : sum local = 1.812438e-12, global = 2.46545e-14, cumulative = -3.853411e-09
GPU: 3 iters: 0.1706182 s: 26.825 GB/s
Total exec time 393.823
 Total comm time 0.5468764Pre time 0.4733859 Post time 0.0734905
GPUBICGS:  Solving for p, Initial residual = 3.631011e-05, Final residual = 9.374299e-06, No Iterations 3
GPU: 261 iters: 12.503 s: 31.84714 GB/s
Total exec time 406.326
 Total comm time 0.5632477Pre time 0.4881347 Post time 0.07511309
GPUBICGS:  Solving for p, Initial residual = 1.549472e-05, Final residual = 9.141867e-08, No Iterations 261
time step continuity errors : sum local = 1.672948e-14, global = 4.731809e-15, cumulative = -3.853406e-09
Moving mesh time step continuity errors : sum local = 1.672948e-14, global = 4.731809e-15, cumulative = -3.853401e-09
smoothSolver:  Solving for k, Initial residual = 0.0007437211, Final residual = 3.250583e-10, No Iterations 1
ExecutionTime = 809.06 s  ClockTime = 814 s

Courant Number mean: 7.684441e-05 max: 0.002846383 velocity magnitude: 0.9488628
yForce = -0.6853014
Y= -1.107634e-10
Vy= -4.738824e-06
Time = 4.5e-05

GAMGPCG:  Solving for cellDisplacementx, Initial residual = 0, Final residual = 0, No Iterations 0
Total solver time is 0
Total solver time is 0
Total solver time is 1
GAMGPCG:  Solving for cellDisplacementy, Initial residual = 0.2676785, Final residual = 3.507879e-10, No Iterations 1
GAMGPCG:  Solving for cellDisplacementz, Initial residual = 0, Final residual = 0, No Iterations 0
volume continuity errors : volume = 4.535015, max error = 1.00919e-08, sum local = 7.135513e-15, global = -1.159296e-18
smoothSolver:  Solving for Ux, Initial residual = 0.00935946, Final residual = 4.561352e-09, No Iterations 1
smoothSolver:  Solving for Uy, Initial residual = 0.0006808935, Final residual = 8.222079e-09, No Iterations 1
smoothSolver:  Solving for Uz, Initial residual = 0.4600561, Final residual = 1.881557e-06, No Iterations 1
GPU: 2 iters: 0.125981 s: 24.2197 GB/s
Total exec time 406.452
 Total comm time 0.5634074Pre time 0.4882789 Post time 0.07512848
GPUBICGS:  Solving for p, Initial residual = 0.0627705, Final residual = 9.972904e-05, No Iterations 2
GPU: 8 iters: 0.4104393 s: 29.73617 GB/s
Total exec time 406.8625
 Total comm time 0.5639629Pre time 0.488782 Post time 0.0751809
GPUBICGS:  Solving for p, Initial residual = 0.0002070072, Final residual = 9.200521e-06, No Iterations 8
time step continuity errors : sum local = 1.577908e-12, global = 3.161349e-15, cumulative = -3.853398e-09
Moving mesh time step continuity errors : sum local = 1.577908e-12, global = 3.161349e-15, cumulative = -3.853395e-09
GPU: 2 iters: 0.1256888 s: 24.27601 GB/s
Total exec time 406.9882
 Total comm time 0.5641242Pre time 0.4889275 Post time 0.07519664
GPUBICGS:  Solving for p, Initial residual = 2.340195e-05, Final residual = 9.430037e-06, No Iterations 2
GPU: 216 iters: 10.33924 s: 31.87199 GB/s
Total exec time 417.3274
 Total comm time 0.5779394Pre time 0.5014013 Post time 0.07653805
GPUBICGS:  Solving for p, Initial residual = 1.149442e-05, Final residual = 9.817645e-08, No Iterations 216
time step continuity errors : sum local = 1.683692e-14, global = 1.298149e-14, cumulative = -3.853382e-09
Moving mesh time step continuity errors : sum local = 1.683692e-14, global = 1.298149e-14, cumulative = -3.853369e-09
smoothSolver:  Solving for k, Initial residual = 0.0006256176, Final residual = 2.83775e-10, No Iterations 1
ExecutionTime = 862.42 s  ClockTime = 868 s

Courant Number mean: 7.684441e-05 max: 0.002842882 velocity magnitude: 0.948246
yForce = 0.1958266
Y= -1.341552e-10
Vy= -4.617883e-06
Time = 5e-05

GAMGPCG:  Solving for cellDisplacementx, Initial residual = 0, Final residual = 0, No Iterations 0
Total solver time is 0
Total solver time is 0
Total solver time is 1
GAMGPCG:  Solving for cellDisplacementy, Initial residual = 0.2323041, Final residual = 3.408442e-10, No Iterations 1
GAMGPCG:  Solving for cellDisplacementz, Initial residual = 0, Final residual = 0, No Iterations 0
volume continuity errors : volume = 4.535015, max error = 1.042485e-08, sum local = 7.135043e-15, global = -6.986817e-19
smoothSolver:  Solving for Ux, Initial residual = 0.008278491, Final residual = 3.933805e-09, No Iterations 1
smoothSolver:  Solving for Uy, Initial residual = 0.0005947129, Final residual = 6.913126e-09, No Iterations 1
smoothSolver:  Solving for Uz, Initial residual = 0.2775038, Final residual = 7.485896e-07, No Iterations 1
GPU: 2 iters: 0.1243493 s: 24.53752 GB/s
Total exec time 417.4517
 Total comm time 0.5780995Pre time 0.5015458 Post time 0.07655363
GPUBICGS:  Solving for p, Initial residual = 0.05636456, Final residual = 7.628853e-05, No Iterations 2
GPU: 6 iters: 0.3171764 s: 28.85987 GB/s
Total exec time 417.7689
 Total comm time 0.5785161Pre time 0.5019226 Post time 0.07659357
GPUBICGS:  Solving for p, Initial residual = 0.0001603332, Final residual = 8.993161e-06, No Iterations 6
time step continuity errors : sum local = 1.455303e-12, global = 2.3108e-14, cumulative = -3.853346e-09
Moving mesh time step continuity errors : sum local = 1.455303e-12, global = 2.3108e-14, cumulative = -3.853323e-09
GPU: 1 iters: 0.07827724 s: 19.48985 GB/s
Total exec time 417.8472
 Total comm time 0.5786145Pre time 0.5020116 Post time 0.07660291
GPUBICGS:  Solving for p, Initial residual = 1.886212e-05, Final residual = 9.558375e-06, No Iterations 1
GPU: 524 iters: 25.02 s: 31.95126 GB/s
Total exec time 442.8672
 Total comm time 0.6121122Pre time 0.5322292 Post time 0.07988301
GPUBICGS:  Solving for p, Initial residual = 1.057433e-05, Final residual = 9.970487e-08, No Iterations 524
time step continuity errors : sum local = 1.613418e-14, global = 1.573917e-14, cumulative = -3.853307e-09
Moving mesh time step continuity errors : sum local = 1.613418e-14, global = 1.573917e-14, cumulative = -3.853291e-09
smoothSolver:  Solving for k, Initial residual = 0.0005378998, Final residual = 2.535621e-10, No Iterations 1
ExecutionTime = 929.75 s  ClockTime = 935 s

yForce = 0.06607615
Y= -1.571426e-10
Vy= -4.57707e-06
End

Finalising parallel run
