 Data for JOB [60643,1] offset 0

 ========================   JOB MAP   ========================

 Data for node: ivb106	Num slots: 3	Max slots: 0	Num procs: 3
 	Process OMPI jobid: [60643,1] App: 0 Process rank: 0
 	Process OMPI jobid: [60643,1] App: 0 Process rank: 1
 	Process OMPI jobid: [60643,1] App: 0 Process rank: 2

 Data for node: ivb108	Num slots: 3	Max slots: 0	Num procs: 3
 	Process OMPI jobid: [60643,1] App: 0 Process rank: 3
 	Process OMPI jobid: [60643,1] App: 0 Process rank: 4
 	Process OMPI jobid: [60643,1] App: 0 Process rank: 5

 =============================================================
[ivb106:26481] MCW rank 0 bound to socket 0[core 0[hwt 0]]: [B/././././././././.][./././././././././.]
[ivb106:26481] MCW rank 1 bound to socket 0[core 1[hwt 0]]: [./B/./././././././.][./././././././././.]
[ivb106:26481] MCW rank 2 bound to socket 0[core 2[hwt 0]]: [././B/././././././.][./././././././././.]
[ivb108:17663] MCW rank 3 bound to socket 0[core 0[hwt 0]]: [B/././././././././.][./././././././././.]
[ivb108:17663] MCW rank 4 bound to socket 0[core 1[hwt 0]]: [./B/./././././././.][./././././././././.]
[ivb108:17663] MCW rank 5 bound to socket 0[core 2[hwt 0]]: [././B/././././././.][./././././././././.]
0
1
2
1
2
0
/*---------------------------------------------------------------------------*\
| =========                 |                                                 |
| \\      /  F ield         | foam-extend: Open Source CFD                    |
|  \\    /   O peration     | Version:     3.1                                |
|   \\  /    A nd           | Web:         http://www.extend-project.de       |
|    \\/     M anipulation  |                                                 |
\*---------------------------------------------------------------------------*/
Build    : 3.1-e2da948002a2
Exec     : interFoam -parallel
Date     : May 18 2016
Time     : 15:47:11
Host     : ivb106
PID      : 26523
CtrlDict : /home-2/vplatonov/foam/foam-extend-3.1/etc/controlDict
Case     : /home/vplatonov/tests/rt12mln
nProcs   : 6
Slaves : 
5
(
ivb106.26521
ivb106.26528
ivb108.17694
ivb108.17693
ivb108.17697
)

Pstream initialized with:
    floatTransfer     : 0
    nProcsSimpleSum   : 0
    commsType         : blocking
SigFpe   : Enabling floating point exception trapping (FOAM_SIGFPE).

// * * * * * * * * * * * * * * * * * * * * * * * * * * * * * * * * * * * * * //
Create time

Create mesh for time = 0


Reading g
Reading field pd

Reading field alpha1

Reading field U

Reading/calculating face flux field phi

Reading transportProperties

Selecting incompressible transport model Newtonian
Selecting incompressible transport model Newtonian
Calculating field g.h

Selecting turbulence model type laminar
time step continuity errors : sum local = 0, global = 0, cumulative = 0
Created persistent data with name pcorr
GPUPCG:  Solving for pcorr, Initial residual = 0, Final residual = 0, No Iterations 0
time step continuity errors : sum local = 0, global = 0, cumulative = 0
Courant Number mean: 0 max: 0 velocity magnitude: 0

Starting time loop

Courant Number mean: 0 max: 0 velocity magnitude: 0
Time = 0.001

MULES: Solving for alpha1
Liquid phase volume fraction = 0.00275421  Min(alpha1) = 0  Max(alpha1) = 1
MULES: Solving for alpha1
Liquid phase volume fraction = 0.00275421  Min(alpha1) = 0  Max(alpha1) = 1
Created persistent data with name pd
Computing AINV with droptol 0.02
GPU: 7 iters: 0.128155 s: 48.7349 GB/s
GPUPCG:  Solving for pd, Initial residual = 1, Final residual = 0.0430137, No Iterations 7
Computing AINV with droptol 0.02
GPU: 185 iters: 2.47054 s: 66.8121 GB/s
GPUPCG:  Solving for pd, Initial residual = 0.0260437, Final residual = 0.00128817, No Iterations 185
GPU: 911 iters: 10.9685 s: 74.1051 GB/s
GPUPCG:  Solving for pd, Initial residual = 0.00731533, Final residual = 9.85692e-08, No Iterations 911
time step continuity errors : sum local = 7.34607e-12, global = -2.8749e-24, cumulative = -2.8749e-24
ExecutionTime = 88.29 s  ClockTime = 99 s

Courant Number mean: 4.8166e-06 max: 0.00215792 velocity magnitude: 0.0337175
Time = 0.002

MULES: Solving for alpha1
Liquid phase volume fraction = 0.00275421  Min(alpha1) = 0  Max(alpha1) = 1
MULES: Solving for alpha1
Liquid phase volume fraction = 0.00275421  Min(alpha1) = 0  Max(alpha1) = 1
GPU: 680 iters: 9.09437 s: 66.7132 GB/s
GPUPCG:  Solving for pd, Initial residual = 0.00479166, Final residual = 0.000232196, No Iterations 680
GPU: 696 iters: 7.36967 s: 84.2631 GB/s
GPUPCG:  Solving for pd, Initial residual = 0.00394677, Final residual = 0.000192558, No Iterations 696
GPU: 957 iters: 11.026 s: 77.4405 GB/s
GPUPCG:  Solving for pd, Initial residual = 0.00349859, Final residual = 9.98664e-08, No Iterations 957
time step continuity errors : sum local = 4.14686e-08, global = -4.14625e-08, cumulative = -4.14625e-08
ExecutionTime = 136.15 s  ClockTime = 147 s

Courant Number mean: 1.35477e-05 max: 0.221112 velocity magnitude: 1.72744
Time = 0.003

MULES: Solving for alpha1
Liquid phase volume fraction = 0.00275424  Min(alpha1) = -1.76725e-30  Max(alpha1) = 1
MULES: Solving for alpha1
Liquid phase volume fraction = 0.00275426  Min(alpha1) = -1.1781e-30  Max(alpha1) = 1
GPU: 697 iters: 8.13817 s: 76.4156 GB/s
GPUPCG:  Solving for pd, Initial residual = 0.0074798, Final residual = 0.000370174, No Iterations 697
GPU: 660 iters: 7.82965 s: 75.2103 GB/s
GPUPCG:  Solving for pd, Initial residual = 0.00520709, Final residual = 0.000257171, No Iterations 660
GPU: 934 iters: 11.7648 s: 70.8335 GB/s
GPUPCG:  Solving for pd, Initial residual = 0.00513668, Final residual = 9.96267e-08, No Iterations 934
time step continuity errors : sum local = 2.25759e-08, global = -2.25707e-08, cumulative = -6.40332e-08
ExecutionTime = 184.39 s  ClockTime = 196 s

Courant Number mean: 1.63363e-05 max: 0.133579 velocity magnitude: 1.04358
Time = 0.004

MULES: Solving for alpha1
Liquid phase volume fraction = 0.00275427  Min(alpha1) = -3.49921e-30  Max(alpha1) = 1
MULES: Solving for alpha1
Liquid phase volume fraction = 0.00275428  Min(alpha1) = -8.95407e-30  Max(alpha1) = 1
GPU: 697 iters: 8.33201 s: 74.6378 GB/s
GPUPCG:  Solving for pd, Initial residual = 0.00849455, Final residual = 0.000408824, No Iterations 697
GPU: 682 iters: 7.00517 s: 86.8644 GB/s
GPUPCG:  Solving for pd, Initial residual = 0.0071909, Final residual = 0.000349144, No Iterations 682
GPU: 961 iters: 9.82014 s: 87.3136 GB/s
GPUPCG:  Solving for pd, Initial residual = 0.00670069, Final residual = 9.9862e-08, No Iterations 961
time step continuity errors : sum local = 1.06659e-08, global = -1.06609e-08, cumulative = -7.46941e-08
ExecutionTime = 229.93 s  ClockTime = 242 s

Courant Number mean: 2.02726e-05 max: 0.0760191 velocity magnitude: 0.593899
Time = 0.005

MULES: Solving for alpha1
Liquid phase volume fraction = 0.00275429  Min(alpha1) = -6.71398e-30  Max(alpha1) = 1
MULES: Solving for alpha1
Liquid phase volume fraction = 0.00275429  Min(alpha1) = -1.98509e-29  Max(alpha1) = 1
GPU: 695 iters: 6.98068 s: 88.8307 GB/s
GPUPCG:  Solving for pd, Initial residual = 0.00674668, Final residual = 0.00033581, No Iterations 695
GPU: 658 iters: 6.65809 s: 88.1764 GB/s
GPUPCG:  Solving for pd, Initial residual = 0.0059192, Final residual = 0.000293228, No Iterations 658
GPU: 950 iters: 10.3227 s: 82.1117 GB/s
GPUPCG:  Solving for pd, Initial residual = 0.00571136, Final residual = 9.78143e-08, No Iterations 950
time step continuity errors : sum local = 2.48163e-09, global = -2.47697e-09, cumulative = -7.71711e-08
ExecutionTime = 274.24 s  ClockTime = 286 s

Courant Number mean: 2.43622e-05 max: 0.0288585 velocity magnitude: 0.303104
Time = 0.006

MULES: Solving for alpha1
Liquid phase volume fraction = 0.00275429  Min(alpha1) = -1.30817e-29  Max(alpha1) = 1
MULES: Solving for alpha1
Liquid phase volume fraction = 0.00275429  Min(alpha1) = -1.53791e-29  Max(alpha1) = 1
GPU: 699 iters: 7.97179 s: 78.2343 GB/s
GPUPCG:  Solving for pd, Initial residual = 0.00747009, Final residual = 0.000367968, No Iterations 699
GPU: 675 iters: 6.87751 s: 87.5686 GB/s
GPUPCG:  Solving for pd, Initial residual = 0.00567421, Final residual = 0.000280314, No Iterations 675
GPU: 950 iters: 10.8146 s: 78.3768 GB/s
GPUPCG:  Solving for pd, Initial residual = 0.00559912, Final residual = 9.97818e-08, No Iterations 950
time step continuity errors : sum local = 3.54885e-11, global = 3.07364e-11, cumulative = -7.71403e-08
ExecutionTime = 320.26 s  ClockTime = 333 s

Courant Number mean: 2.92834e-05 max: 0.0329532 velocity magnitude: 0.257447
Time = 0.007

MULES: Solving for alpha1
Liquid phase volume fraction = 0.00275429  Min(alpha1) = -3.42861e-29  Max(alpha1) = 1
MULES: Solving for alpha1
Liquid phase volume fraction = 0.00275429  Min(alpha1) = -3.46964e-29  Max(alpha1) = 1
GPU: 702 iters: 7.30733 s: 85.7146 GB/s
GPUPCG:  Solving for pd, Initial residual = 0.00717974, Final residual = 0.000353104, No Iterations 702
GPU: 647 iters: 6.92695 s: 83.337 GB/s
GPUPCG:  Solving for pd, Initial residual = 0.00461287, Final residual = 0.000222754, No Iterations 647
GPU: 869 iters: 9.36356 s: 82.8047 GB/s
GPUPCG:  Solving for pd, Initial residual = 0.00418359, Final residual = 9.97277e-08, No Iterations 869
time step continuity errors : sum local = 1.46804e-10, global = 1.4214e-10, cumulative = -7.69982e-08
ExecutionTime = 364.24 s  ClockTime = 377 s

Courant Number mean: 3.43699e-05 max: 0.00923244 velocity magnitude: 0.130396
Time = 0.008

MULES: Solving for alpha1
Liquid phase volume fraction = 0.00275429  Min(alpha1) = -5.0745e-29  Max(alpha1) = 1
MULES: Solving for alpha1
Liquid phase volume fraction = 0.00275429  Min(alpha1) = -6.61834e-29  Max(alpha1) = 1
GPU: 705 iters: 8.48849 s: 74.1028 GB/s
GPUPCG:  Solving for pd, Initial residual = 0.00759814, Final residual = 0.000374296, No Iterations 705
GPU: 306 iters: 3.11393 s: 87.6777 GB/s
GPUPCG:  Solving for pd, Initial residual = 0.00448259, Final residual = 0.000222624, No Iterations 306
GPU: 830 iters: 8.82937 s: 83.8734 GB/s
GPUPCG:  Solving for pd, Initial residual = 0.00419634, Final residual = 9.54853e-08, No Iterations 830
time step continuity errors : sum local = 1.57086e-10, global = 1.52649e-10, cumulative = -7.68456e-08
ExecutionTime = 405.06 s  ClockTime = 418 s

Courant Number mean: 3.94773e-05 max: 0.00904201 velocity magnitude: 0.140308
Time = 0.009

MULES: Solving for alpha1
Liquid phase volume fraction = 0.00275429  Min(alpha1) = -6.49349e-29  Max(alpha1) = 1
MULES: Solving for alpha1
Liquid phase volume fraction = 0.00275429  Min(alpha1) = -4.97539e-29  Max(alpha1) = 1
GPU: 707 iters: 7.51216 s: 83.9713 GB/s
GPUPCG:  Solving for pd, Initial residual = 0.00747589, Final residual = 0.000367507, No Iterations 707
GPU: 314 iters: 3.89058 s: 72.0098 GB/s
GPUPCG:  Solving for pd, Initial residual = 0.00468676, Final residual = 0.000234261, No Iterations 314
GPU: 836 iters: 8.62599 s: 86.4716 GB/s
GPUPCG:  Solving for pd, Initial residual = 0.00415924, Final residual = 9.96258e-08, No Iterations 836
time step continuity errors : sum local = 6.54892e-12, global = 1.93217e-12, cumulative = -7.68436e-08
ExecutionTime = 445.56 s  ClockTime = 459 s

Courant Number mean: 4.4594e-05 max: 0.00972269 velocity magnitude: 0.149313
Time = 0.01

MULES: Solving for alpha1
Liquid phase volume fraction = 0.00275429  Min(alpha1) = -6.41869e-29  Max(alpha1) = 1
MULES: Solving for alpha1
Liquid phase volume fraction = 0.00275429  Min(alpha1) = -1.7175e-29  Max(alpha1) = 1
GPU: 707 iters: 9.05419 s: 69.67 GB/s
GPUPCG:  Solving for pd, Initial residual = 0.00809306, Final residual = 0.000396511, No Iterations 707
GPU: 302 iters: 3.09746 s: 86.9917 GB/s
GPUPCG:  Solving for pd, Initial residual = 0.00466953, Final residual = 0.000231468, No Iterations 302
GPU: 830 iters: 10.176 s: 72.7741 GB/s
GPUPCG:  Solving for pd, Initial residual = 0.00432632, Final residual = 9.84524e-08, No Iterations 830
time step continuity errors : sum local = 4.62057e-11, global = -4.16688e-11, cumulative = -7.68853e-08
ExecutionTime = 488.21 s  ClockTime = 501 s

End

Finalising parallel run
