 Data for JOB [61327,1] offset 0

 ========================   JOB MAP   ========================

 Data for node: ivb124	Num slots: 4	Max slots: 0	Num procs: 4
 	Process OMPI jobid: [61327,1] App: 0 Process rank: 0
 	Process OMPI jobid: [61327,1] App: 0 Process rank: 1
 	Process OMPI jobid: [61327,1] App: 0 Process rank: 2
 	Process OMPI jobid: [61327,1] App: 0 Process rank: 3

 =============================================================
[ivb124:01197] MCW rank 2 bound to socket 0[core 2[hwt 0]]: [././B/././././././.][./././././././././.]
[ivb124:01197] MCW rank 3 bound to socket 0[core 3[hwt 0]]: [./././B/./././././.][./././././././././.]
[ivb124:01197] MCW rank 0 bound to socket 0[core 0[hwt 0]]: [B/././././././././.][./././././././././.]
[ivb124:01197] MCW rank 1 bound to socket 0[core 1[hwt 0]]: [./B/./././././././.][./././././././././.]
2
0
1
3
/*---------------------------------------------------------------------------*\
| =========                 |                                                 |
| \\      /  F ield         | foam-extend: Open Source CFD                    |
|  \\    /   O peration     | Version:     3.1                                |
|   \\  /    A nd           | Web:         http://www.extend-project.de       |
|    \\/     M anipulation  |                                                 |
\*---------------------------------------------------------------------------*/
Build    : 3.1-e2da948002a2
Exec     : interFoam -parallel
Date     : May 17 2016
Time     : 13:18:44
Host     : ivb124
PID      : 1236
CtrlDict : /home-2/vplatonov/foam/foam-extend-3.1/etc/controlDict
Case     : /home/vplatonov/tests/rt12mln
nProcs   : 4
Slaves : 
3
(
ivb124.1232
ivb124.1243
ivb124.1231
)

Pstream initialized with:
    floatTransfer     : 0
    nProcsSimpleSum   : 0
    commsType         : blocking
SigFpe   : Enabling floating point exception trapping (FOAM_SIGFPE).

// * * * * * * * * * * * * * * * * * * * * * * * * * * * * * * * * * * * * * //
Create time

Create mesh for time = 0


Reading g
Reading field pd

Reading field alpha1

Reading field U

Reading/calculating face flux field phi

Reading transportProperties

Selecting incompressible transport model Newtonian
Selecting incompressible transport model Newtonian
Calculating field g.h

Selecting turbulence model type laminar
time step continuity errors : sum local = 0, global = 0, cumulative = 0
Created persistent data with name pcorr
OGPUBICGS:  Solving for pcorr, Initial residual = 0, Final residual = 0, No Iterations 0
time step continuity errors : sum local = 0, global = 0, cumulative = 0
Courant Number mean: 0 max: 0 velocity magnitude: 0

Starting time loop

Courant Number mean: 0 max: 0 velocity magnitude: 0
Time = 0.001

MULES: Solving for alpha1
Liquid phase volume fraction = 0.00275421  Min(alpha1) = 0  Max(alpha1) = 1
MULES: Solving for alpha1
Liquid phase volume fraction = 0.00275421  Min(alpha1) = 0  Max(alpha1) = 1
Created persistent data with name pd
Computing AINV with droptol 0.02
GPU: 1 iters: 0.0494065 s: 27.0809 GB/s
Total exec time 0.0494065 Total comm time 0.0031479
OGPUBICGS:  Solving for pd, Initial residual = 1, Final residual = 0.048381, No Iterations 1
Computing AINV with droptol 0.02
GPU: 29 iters: 0.656435 s: 59.1089 GB/s
Total exec time 0.705841 Total comm time 0.0460633
OGPUBICGS:  Solving for pd, Initial residual = 0.0328058, Final residual = 0.00134775, No Iterations 29
GPU: 589 iters: 12.7486 s: 61.8156 GB/s
Total exec time 13.4545 Total comm time 0.81919
OGPUBICGS:  Solving for pd, Initial residual = 0.0125474, Final residual = 3.60892e-08, No Iterations 589
time step continuity errors : sum local = 3.23689e-12, global = -4.22e-25, cumulative = -4.22e-25
ExecutionTime = 126.36 s  ClockTime = 135 s

Courant Number mean: 4.85822e-06 max: 0.00215161 velocity magnitude: 0.0336189
Time = 0.002

MULES: Solving for alpha1
Liquid phase volume fraction = 0.00275421  Min(alpha1) = 0  Max(alpha1) = 1
MULES: Solving for alpha1
Liquid phase volume fraction = 0.00275421  Min(alpha1) = 0  Max(alpha1) = 1
GPU: 48 iters: 1.05748 s: 60.732 GB/s
Total exec time 14.512 Total comm time 0.88199
OGPUBICGS:  Solving for pd, Initial residual = 0.00383305, Final residual = 0.000189691, No Iterations 48
GPU: 108 iters: 2.35979 s: 61.2346 GB/s
Total exec time 16.8717 Total comm time 1.0262
OGPUBICGS:  Solving for pd, Initial residual = 0.00222099, Final residual = 9.89591e-05, No Iterations 108
GPU: 587 iters: 12.7344 s: 61.6744 GB/s
Total exec time 29.6062 Total comm time 1.81528
OGPUBICGS:  Solving for pd, Initial residual = 0.00196193, Final residual = 4.29237e-08, No Iterations 587
time step continuity errors : sum local = 3.11398e-12, global = 2.30163e-25, cumulative = -1.91837e-25
ExecutionTime = 174.24 s  ClockTime = 184 s

Courant Number mean: 7.65493e-06 max: 0.00312326 velocity magnitude: 0.0488009
Time = 0.003

MULES: Solving for alpha1
Liquid phase volume fraction = 0.00275421  Min(alpha1) = -1.70946e-30  Max(alpha1) = 1
MULES: Solving for alpha1
Liquid phase volume fraction = 0.00275421  Min(alpha1) = -3.51339e-30  Max(alpha1) = 1
GPU: 80 iters: 1.74494 s: 61.3416 GB/s
Total exec time 31.3511 Total comm time 1.91725
OGPUBICGS:  Solving for pd, Initial residual = 0.00424777, Final residual = 0.000210505, No Iterations 80
GPU: 62 iters: 1.36262 s: 60.8785 GB/s
Total exec time 32.7137 Total comm time 2.00146
OGPUBICGS:  Solving for pd, Initial residual = 0.00315535, Final residual = 0.00015569, No Iterations 62
GPU: 579 iters: 12.5995 s: 61.4855 GB/s
Total exec time 45.3132 Total comm time 2.79045
OGPUBICGS:  Solving for pd, Initial residual = 0.0026499, Final residual = 8.05026e-08, No Iterations 579
time step continuity errors : sum local = 6.95012e-12, global = -4.77007e-26, cumulative = -2.39538e-25
ExecutionTime = 222.13 s  ClockTime = 232 s

Courant Number mean: 1.35497e-05 max: 0.00481454 velocity magnitude: 0.0752272
Time = 0.004

MULES: Solving for alpha1
Liquid phase volume fraction = 0.00275421  Min(alpha1) = -6.24916e-30  Max(alpha1) = 1
MULES: Solving for alpha1
Liquid phase volume fraction = 0.00275421  Min(alpha1) = -6.66462e-30  Max(alpha1) = 1
GPU: 54 iters: 1.18892 s: 60.7699 GB/s
Total exec time 46.5021 Total comm time 2.86497
OGPUBICGS:  Solving for pd, Initial residual = 0.00343304, Final residual = 0.000168679, No Iterations 54
GPU: 63 iters: 1.38879 s: 60.6945 GB/s
Total exec time 47.8909 Total comm time 2.94954
OGPUBICGS:  Solving for pd, Initial residual = 0.0032789, Final residual = 0.000159957, No Iterations 63
GPU: 344 iters: 7.48197 s: 61.5162 GB/s
Total exec time 55.3729 Total comm time 3.42297
OGPUBICGS:  Solving for pd, Initial residual = 0.00251322, Final residual = 9.69084e-08, No Iterations 344
time step continuity errors : sum local = 8.27066e-12, global = 2.24966e-24, cumulative = 2.01012e-24
ExecutionTime = 264.38 s  ClockTime = 274 s

Courant Number mean: 1.9225e-05 max: 0.00596556 velocity magnitude: 0.0932118
Time = 0.005

MULES: Solving for alpha1
Liquid phase volume fraction = 0.00275421  Min(alpha1) = -1.05301e-29  Max(alpha1) = 1
MULES: Solving for alpha1
Liquid phase volume fraction = 0.00275421  Min(alpha1) = -1.5926e-29  Max(alpha1) = 1
GPU: 88 iters: 1.93032 s: 60.9957 GB/s
Total exec time 57.3032 Total comm time 3.54371
OGPUBICGS:  Solving for pd, Initial residual = 0.00217999, Final residual = 0.000107924, No Iterations 88
GPU: 67 iters: 1.47521 s: 60.7669 GB/s
Total exec time 58.7784 Total comm time 3.62992
OGPUBICGS:  Solving for pd, Initial residual = 0.00182817, Final residual = 9.06535e-05, No Iterations 67
GPU: 365 iters: 7.95295 s: 61.406 GB/s
Total exec time 66.7314 Total comm time 4.12267
OGPUBICGS:  Solving for pd, Initial residual = 0.00145786, Final residual = 9.70593e-08, No Iterations 365
time step continuity errors : sum local = 5.02901e-12, global = -1.13875e-25, cumulative = 1.89624e-24
ExecutionTime = 308.02 s  ClockTime = 318 s

Courant Number mean: 2.43653e-05 max: 0.00682589 velocity magnitude: 0.106655
Time = 0.006

MULES: Solving for alpha1
Liquid phase volume fraction = 0.00275421  Min(alpha1) = -2.74656e-29  Max(alpha1) = 1
MULES: Solving for alpha1
Liquid phase volume fraction = 0.00275421  Min(alpha1) = -4.91504e-29  Max(alpha1) = 1
GPU: 91 iters: 1.99703 s: 60.9683 GB/s
Total exec time 68.7284 Total comm time 4.25222
OGPUBICGS:  Solving for pd, Initial residual = 0.00226056, Final residual = 0.000111653, No Iterations 91
GPU: 75 iters: 1.6448 s: 61.0093 GB/s
Total exec time 70.3732 Total comm time 4.35197
OGPUBICGS:  Solving for pd, Initial residual = 0.00122387, Final residual = 5.83181e-05, No Iterations 75
GPU: 322 iters: 6.98466 s: 61.6818 GB/s
Total exec time 77.3579 Total comm time 4.81013
OGPUBICGS:  Solving for pd, Initial residual = 0.000730522, Final residual = 9.79405e-08, No Iterations 322
time step continuity errors : sum local = 4.78441e-12, global = -7.35943e-24, cumulative = -5.46318e-24
ExecutionTime = 350.8 s  ClockTime = 361 s

Courant Number mean: 2.948e-05 max: 0.0076296 velocity magnitude: 0.119213
Time = 0.007

MULES: Solving for alpha1
Liquid phase volume fraction = 0.00275421  Min(alpha1) = -5.54795e-29  Max(alpha1) = 1
MULES: Solving for alpha1
Liquid phase volume fraction = 0.00275421  Min(alpha1) = -2.78699e-29  Max(alpha1) = 1
GPU: 86 iters: 1.9027 s: 60.4747 GB/s
Total exec time 79.2606 Total comm time 4.93694
OGPUBICGS:  Solving for pd, Initial residual = 0.00231748, Final residual = 0.000115498, No Iterations 86
GPU: 71 iters: 1.55292 s: 61.1724 GB/s
Total exec time 80.8135 Total comm time 5.0262
OGPUBICGS:  Solving for pd, Initial residual = 0.00114234, Final residual = 5.59832e-05, No Iterations 71
GPU: 325 iters: 7.05868 s: 61.6037 GB/s
Total exec time 87.8722 Total comm time 5.46185
OGPUBICGS:  Solving for pd, Initial residual = 0.000565866, Final residual = 8.38456e-08, No Iterations 325
time step continuity errors : sum local = 3.90917e-12, global = 3.8894e-24, cumulative = -1.57378e-24
ExecutionTime = 393.24 s  ClockTime = 404 s

Courant Number mean: 3.46005e-05 max: 0.00833694 velocity magnitude: 0.130265
Time = 0.008

MULES: Solving for alpha1
Liquid phase volume fraction = 0.00275421  Min(alpha1) = -4.61816e-29  Max(alpha1) = 1
MULES: Solving for alpha1
Liquid phase volume fraction = 0.00275421  Min(alpha1) = -3.70126e-29  Max(alpha1) = 1
GPU: 83 iters: 1.8188 s: 61.0577 GB/s
Total exec time 89.691 Total comm time 5.5748
OGPUBICGS:  Solving for pd, Initial residual = 0.00236044, Final residual = 0.00011711, No Iterations 83
GPU: 79 iters: 1.74546 s: 60.557 GB/s
Total exec time 91.4364 Total comm time 5.68816
OGPUBICGS:  Solving for pd, Initial residual = 0.00111366, Final residual = 5.36325e-05, No Iterations 79
GPU: 355 iters: 7.72033 s: 61.5232 GB/s
Total exec time 99.1568 Total comm time 6.17515
OGPUBICGS:  Solving for pd, Initial residual = 0.0004823, Final residual = 9.14163e-08, No Iterations 355
time step continuity errors : sum local = 4.50466e-12, global = 1.62789e-24, cumulative = 5.41114e-26
ExecutionTime = 436.66 s  ClockTime = 447 s

Courant Number mean: 3.97354e-05 max: 0.00902761 velocity magnitude: 0.140182
Time = 0.009

MULES: Solving for alpha1
Liquid phase volume fraction = 0.00275421  Min(alpha1) = -3.64569e-29  Max(alpha1) = 1
MULES: Solving for alpha1
Liquid phase volume fraction = 0.00275421  Min(alpha1) = -2.49448e-29  Max(alpha1) = 1
GPU: 82 iters: 1.79208 s: 61.2214 GB/s
Total exec time 100.949 Total comm time 6.28451
OGPUBICGS:  Solving for pd, Initial residual = 0.00241727, Final residual = 0.000118229, No Iterations 82
GPU: 81 iters: 1.77252 s: 61.1423 GB/s
Total exec time 102.721 Total comm time 6.39271
OGPUBICGS:  Solving for pd, Initial residual = 0.00107166, Final residual = 5.15815e-05, No Iterations 81
GPU: 340 iters: 7.38662 s: 61.5857 GB/s
Total exec time 110.108 Total comm time 6.85239
OGPUBICGS:  Solving for pd, Initial residual = 0.000402976, Final residual = 9.29843e-08, No Iterations 340
time step continuity errors : sum local = 4.84928e-12, global = -2.4781e-25, cumulative = -1.93698e-25
ExecutionTime = 479.33 s  ClockTime = 490 s

Courant Number mean: 4.48895e-05 max: 0.00970837 velocity magnitude: 0.149192
Time = 0.01

MULES: Solving for alpha1
Liquid phase volume fraction = 0.00275421  Min(alpha1) = -6.51908e-29  Max(alpha1) = 1
MULES: Solving for alpha1
Liquid phase volume fraction = 0.00275421  Min(alpha1) = -2.2322e-29  Max(alpha1) = 1
GPU: 71 iters: 1.57064 s: 60.4822 GB/s
Total exec time 111.679 Total comm time 6.95549
OGPUBICGS:  Solving for pd, Initial residual = 0.00257958, Final residual = 0.000128941, No Iterations 71
GPU: 77 iters: 1.69278 s: 60.8609 GB/s
Total exec time 113.371 Total comm time 7.05921
OGPUBICGS:  Solving for pd, Initial residual = 0.0010679, Final residual = 4.7707e-05, No Iterations 77
GPU: 363 iters: 7.85364 s: 61.8418 GB/s
Total exec time 121.225 Total comm time 7.53706
OGPUBICGS:  Solving for pd, Initial residual = 0.000352044, Final residual = 9.65251e-08, No Iterations 363
time step continuity errors : sum local = 5.43933e-12, global = -1.67752e-24, cumulative = -1.87122e-24
ExecutionTime = 522.64 s  ClockTime = 534 s

End

Finalising parallel run
