 Data for JOB [5628,1] offset 0

 ========================   JOB MAP   ========================

 Data for node: ivb112	Num slots: 2	Max slots: 0	Num procs: 2
 	Process OMPI jobid: [5628,1] App: 0 Process rank: 0
 	Process OMPI jobid: [5628,1] App: 0 Process rank: 1

 Data for node: ivb113	Num slots: 2	Max slots: 0	Num procs: 2
 	Process OMPI jobid: [5628,1] App: 0 Process rank: 2
 	Process OMPI jobid: [5628,1] App: 0 Process rank: 3

 =============================================================
[ivb112:18954] MCW rank 1 bound to socket 0[core 1[hwt 0]]: [./B/./././././././.][./././././././././.]
[ivb112:18954] MCW rank 0 bound to socket 0[core 0[hwt 0]]: [B/././././././././.][./././././././././.]
[ivb113:37409] MCW rank 3 bound to socket 0[core 1[hwt 0]]: [./B/./././././././.][./././././././././.]
[ivb113:37409] MCW rank 2 bound to socket 0[core 0[hwt 0]]: [B/././././././././.][./././././././././.]
1
0
1
0
/*---------------------------------------------------------------------------*\
| =========                 |                                                 |
| \\      /  F ield         | foam-extend: Open Source CFD                    |
|  \\    /   O peration     | Version:     3.1                                |
|   \\  /    A nd           | Web:         http://www.extend-project.de       |
|    \\/     M anipulation  |                                                 |
\*---------------------------------------------------------------------------*/
Build    : 3.1-e2da948002a2
Exec     : pimpleDyMFoam -parallel
Date     : May 26 2016
Time     : 15:18:24
Host     : ivb112
PID      : 18991
CtrlDict : /home-2/vplatonov/foam/foam-extend-3.1/etc/controlDict
Case     : /home/vplatonov/tests/3D-mesh1-of3.1
nProcs   : 4
Slaves : 
3
(
ivb112.18990
ivb113.37433
ivb113.37432
)

Pstream initialized with:
    floatTransfer     : 0
    nProcsSimpleSum   : 0
    commsType         : blocking
SigFpe   : Enabling floating point exception trapping (FOAM_SIGFPE).

// * * * * * * * * * * * * * * * * * * * * * * * * * * * * * * * * * * * * * //
Create time

Create dynamic mesh for time = 0

Selecting dynamicFvMesh dynamicMotionSolverFvMesh
Selecting motion solver: displacementLaplacian
Selecting motion diffusion: quadratic
Selecting motion diffusion: inverseDistance
Reading field p

Reading field U

Reading/calculating face flux field phi

Selecting incompressible transport model Newtonian
Selecting turbulence model type LESModel
Selecting LES turbulence model oneEqEddy
oneEqEddyCoeffs
{
    ce              1.048;
    ck              0.094;
}

Reading field rAU if present


Starting time loop

Courant Number mean: 0 max: 0.0007592825 velocity magnitude: 0.4779
Reading old state
Before setting displacements
GAMGPCG:  Solving for cellDisplacementx, Initial residual = 0, Final residual = 0, No Iterations 0
GAMGPCG:  Solving for cellDisplacementy, Initial residual = 0, Final residual = 0, No Iterations 0
GAMGPCG:  Solving for cellDisplacementz, Initial residual = 0, Final residual = 0, No Iterations 0
Time = 5e-06

GAMGPCG:  Solving for cellDisplacementx, Initial residual = 0, Final residual = 0, No Iterations 0
GAMGPCG:  Solving for cellDisplacementy, Initial residual = 0, Final residual = 0, No Iterations 0
GAMGPCG:  Solving for cellDisplacementz, Initial residual = 0, Final residual = 0, No Iterations 0
volume continuity errors : volume = 4.535015, max error = 0, sum local = 0, global = 0
smoothSolver:  Solving for Ux, Initial residual = 1, Final residual = 9.457309e-09, No Iterations 1
smoothSolver:  Solving for Uy, Initial residual = 1, Final residual = 1.115892e-08, No Iterations 1
smoothSolver:  Solving for Uz, Initial residual = 0.9999962, Final residual = 4.021583e-08, No Iterations 1
Created persistent data with name p
Computing AINV with droptol 0.02
GPU: 548 iters: 24.9907 s: 33.45385 GB/s
Total exec time 24.9907
 Total comm time 0.003434368Pre time 0 Post time 0.003434368
SGPUBICGS:  Solving for p, Initial residual = 1, Final residual = 0.008884487, No Iterations 548
Computing AINV with droptol 0.02
GPU: 159 iters: 7.520802 s: 32.25351 GB/s
Total exec time 32.5115
 Total comm time 0.004431936Pre time 0 Post time 0.004431936
SGPUBICGS:  Solving for p, Initial residual = 0.0004701326, Final residual = 9.736385e-06, No Iterations 159
time step continuity errors : sum local = 2.186118e-09, global = -1.613332e-09, cumulative = -1.613332e-09
Moving mesh time step continuity errors : sum local = 2.186118e-09, global = -1.613332e-09, cumulative = -3.226664e-09
GPU: 42 iters: 2.021497 s: 31.69714 GB/s
Total exec time 34.533
 Total comm time 0.00469888Pre time 0 Post time 0.00469888
SGPUBICGS:  Solving for p, Initial residual = 0.0001105527, Final residual = 9.194879e-06, No Iterations 42
GPU: 520 iters: 24.66438 s: 32.16452 GB/s
Total exec time 59.19738
 Total comm time 0.007976384Pre time 0 Post time 0.007976384
SGPUBICGS:  Solving for p, Initial residual = 4.597612e-05, Final residual = 9.367612e-08, No Iterations 520
time step continuity errors : sum local = 2.104894e-11, global = -4.506919e-13, cumulative = -3.227115e-09
Moving mesh time step continuity errors : sum local = 2.104894e-11, global = -4.506919e-13, cumulative = -3.227565e-09
smoothSolver:  Solving for k, Initial residual = 1, Final residual = 1.499339e-11, No Iterations 2
ExecutionTime = 179.71 s  ClockTime = 184 s

Courant Number mean: 7.683959e-05 max: 0.002864527 velocity magnitude: 0.9549114
yForce = 17.22937
Y= 2.660017e-11
Vy= 1.064006e-05
Time = 1e-05

GAMGPCG:  Solving for cellDisplacementx, Initial residual = 0, Final residual = 0, No Iterations 0
Total solver time is 0
Total solver time is 0
Total solver time is 1
GAMGPCG:  Solving for cellDisplacementy, Initial residual = 1, Final residual = 1.451243e-09, No Iterations 1
GAMGPCG:  Solving for cellDisplacementz, Initial residual = 0, Final residual = 0, No Iterations 0
volume continuity errors : volume = 4.535015, max error = 1.169259e-08, sum local = 6.185373e-15, global = -2.9099e-18
smoothSolver:  Solving for Ux, Initial residual = 0.9975418, Final residual = 5.466747e-07, No Iterations 1
smoothSolver:  Solving for Uy, Initial residual = 0.3325961, Final residual = 1.323275e-06, No Iterations 1
smoothSolver:  Solving for Uz, Initial residual = 0.332973, Final residual = 2.581116e-07, No Iterations 1
GPU: 529 iters: 25.03716 s: 32.23403 GB/s
Total exec time 84.23454
 Total comm time 0.01489997Pre time 0 Post time 0.01489997
SGPUBICGS:  Solving for p, Initial residual = 0.003644663, Final residual = 3.443907e-05, No Iterations 529
GPU: 503 iters: 23.79753 s: 32.24631 GB/s
Total exec time 108.0321
 Total comm time 0.02047619Pre time 0 Post time 0.02047619
SGPUBICGS:  Solving for p, Initial residual = 0.001423439, Final residual = 1.405008e-05, No Iterations 503
time step continuity errors : sum local = 1.041885e-09, global = -2.172264e-11, cumulative = -3.249288e-09
Moving mesh time step continuity errors : sum local = 1.041885e-09, global = -2.172264e-11, cumulative = -3.271011e-09
GPU: 150 iters: 7.099687 s: 32.23265 GB/s
Total exec time 115.1318
 Total comm time 0.02141795Pre time 0 Post time 0.02141795
SGPUBICGS:  Solving for p, Initial residual = 0.0003141732, Final residual = 6.4548e-06, No Iterations 150
GPU: 599 iters: 28.28779 s: 32.30516 GB/s
Total exec time 143.4195
 Total comm time 0.0251903Pre time 0 Post time 0.0251903
SGPUBICGS:  Solving for p, Initial residual = 0.0001163798, Final residual = 5.409428e-08, No Iterations 599
time step continuity errors : sum local = 4.0618e-12, global = -1.527768e-13, cumulative = -3.271164e-09
Moving mesh time step continuity errors : sum local = 4.0618e-12, global = -1.527768e-13, cumulative = -3.271316e-09
smoothSolver:  Solving for k, Initial residual = 0.008782366, Final residual = 3.636359e-09, No Iterations 1
ExecutionTime = 306.74 s  ClockTime = 312 s

Courant Number mean: 7.68432e-05 max: 0.002857015 velocity magnitude: 0.9524071
yForce = -27.66904
Y= 3.708261e-11
Vy= -6.447075e-06
Time = 1.5e-05

GAMGPCG:  Solving for cellDisplacementx, Initial residual = 0, Final residual = 0, No Iterations 0
Total solver time is 0
Total solver time is 0
Total solver time is 1
GAMGPCG:  Solving for cellDisplacementy, Initial residual = 0.3193953, Final residual = 1.143841e-09, No Iterations 1
GAMGPCG:  Solving for cellDisplacementz, Initial residual = 0, Final residual = 0, No Iterations 0
volume continuity errors : volume = 4.535015, max error = 1.16491e-08, sum local = 7.047757e-15, global = 6.036281e-18
smoothSolver:  Solving for Ux, Initial residual = 0.9921558, Final residual = 5.44681e-07, No Iterations 1
smoothSolver:  Solving for Uy, Initial residual = 0.1846459, Final residual = 8.04087e-07, No Iterations 1
smoothSolver:  Solving for Uz, Initial residual = 0.8553005, Final residual = 5.946351e-07, No Iterations 1
GPU: 581 iters: 27.49164 s: 32.24181 GB/s
Total exec time 170.9112
 Total comm time 0.03046829Pre time 0 Post time 0.03046829
SGPUBICGS:  Solving for p, Initial residual = 0.002801853, Final residual = 2.164957e-05, No Iterations 581
GPU: 215 iters: 10.18075 s: 32.21831 GB/s
Total exec time 181.0919
 Total comm time 0.03181926Pre time 0 Post time 0.03181926
SGPUBICGS:  Solving for p, Initial residual = 0.07267271, Final residual = 0.0007187957, No Iterations 215
time step continuity errors : sum local = 3.38876e-10, global = -2.904423e-10, cumulative = -3.561759e-09
Moving mesh time step continuity errors : sum local = 3.38876e-10, global = -2.904423e-10, cumulative = -3.852201e-09
GPU: 494 iters: 23.435 s: 32.15925 GB/s
Total exec time 204.5269
 Total comm time 0.03491648Pre time 0 Post time 0.03491648
SGPUBICGS:  Solving for p, Initial residual = 0.01684796, Final residual = 8.271088e-05, No Iterations 494
GPU: 812 iters: 38.45325 s: 32.21565 GB/s
Total exec time 242.9802
 Total comm time 0.0400088Pre time 0 Post time 0.0400088
SGPUBICGS:  Solving for p, Initial residual = 0.007475015, Final residual = 4.356407e-08, No Iterations 812
time step continuity errors : sum local = 1.384076e-14, global = 6.49351e-16, cumulative = -3.8522e-09
Moving mesh time step continuity errors : sum local = 1.384076e-14, global = 6.49351e-16, cumulative = -3.8522e-09
smoothSolver:  Solving for k, Initial residual = 0.003835596, Final residual = 1.513363e-09, No Iterations 1
ExecutionTime = 448.7 s  ClockTime = 454 s

Courant Number mean: 7.684358e-05 max: 0.002858873 velocity magnitude: 0.9530267
yForce = -0.7537163
Y= 3.683603e-12
Vy= -6.912526e-06
Time = 2e-05

GAMGPCG:  Solving for cellDisplacementx, Initial residual = 0, Final residual = 0, No Iterations 0
Total solver time is 0
Total solver time is 0
Total solver time is 1
GAMGPCG:  Solving for cellDisplacementy, Initial residual = 1, Final residual = 1.730865e-09, No Iterations 1
GAMGPCG:  Solving for cellDisplacementz, Initial residual = 0, Final residual = 0, No Iterations 0
volume continuity errors : volume = 4.535015, max error = 1.024179e-08, sum local = 7.068511e-15, global = 1.119824e-18
smoothSolver:  Solving for Ux, Initial residual = 0.05107904, Final residual = 5.047113e-08, No Iterations 1
smoothSolver:  Solving for Uy, Initial residual = 0.01349585, Final residual = 8.961116e-08, No Iterations 1
smoothSolver:  Solving for Uz, Initial residual = 0.9881905, Final residual = 5.737177e-07, No Iterations 1
GPU: 32 iters: 1.541638 s: 31.66735 GB/s
Total exec time 244.5218
 Total comm time 0.04021328Pre time 0 Post time 0.04021328
SGPUBICGS:  Solving for p, Initial residual = 0.2263007, Final residual = 0.001698792, No Iterations 32
GPU: 144 iters: 6.812168 s: 32.24936 GB/s
Total exec time 251.334
 Total comm time 0.04111722Pre time 0 Post time 0.04111722
SGPUBICGS:  Solving for p, Initial residual = 0.01201762, Final residual = 0.0001195617, No Iterations 144
time step continuity errors : sum local = 3.229198e-11, global = -5.61748e-13, cumulative = -3.852761e-09
Moving mesh time step continuity errors : sum local = 3.229198e-11, global = -5.61748e-13, cumulative = -3.853323e-09
GPU: 243 iters: 11.54396 s: 32.11407 GB/s
Total exec time 262.878
 Total comm time 0.0426455Pre time 0 Post time 0.0426455
SGPUBICGS:  Solving for p, Initial residual = 0.004293173, Final residual = 3.972601e-05, No Iterations 243
GPU: 654 iters: 30.99539 s: 32.19027 GB/s
Total exec time 293.8733
 Total comm time 0.04675414Pre time 0 Post time 0.04675414
SGPUBICGS:  Solving for p, Initial residual = 0.001825297, Final residual = 8.616747e-08, No Iterations 654
time step continuity errors : sum local = 2.318209e-14, global = -1.83787e-15, cumulative = -3.853325e-09
Moving mesh time step continuity errors : sum local = 2.318209e-14, global = -1.83787e-15, cumulative = -3.853327e-09
smoothSolver:  Solving for k, Initial residual = 0.002273337, Final residual = 8.913553e-10, No Iterations 1
ExecutionTime = 542.29 s  ClockTime = 548 s

Courant Number mean: 7.684414e-05 max: 0.002856743 velocity magnitude: 0.9523164
yForce = 6.832964
Y= -2.032968e-11
Vy= -2.692792e-06
Time = 2.5e-05

GAMGPCG:  Solving for cellDisplacementx, Initial residual = 0, Final residual = 0, No Iterations 0
Total solver time is 0
Total solver time is 0
Total solver time is 1
GAMGPCG:  Solving for cellDisplacementy, Initial residual = 0.9310635, Final residual = 1.834032e-09, No Iterations 1
GAMGPCG:  Solving for cellDisplacementz, Initial residual = 0, Final residual = 0, No Iterations 0
volume continuity errors : volume = 4.535015, max error = 1.031547e-08, sum local = 7.070587e-15, global = -3.050088e-18
smoothSolver:  Solving for Ux, Initial residual = 0.02708406, Final residual = 1.786698e-08, No Iterations 1
smoothSolver:  Solving for Uy, Initial residual = 0.004572611, Final residual = 3.133241e-08, No Iterations 1
smoothSolver:  Solving for Uz, Initial residual = 0.8910796, Final residual = 7.011028e-07, No Iterations 1
GPU: 9 iters: 0.4538323 s: 30.25458 GB/s
Total exec time 294.3272
 Total comm time 0.04681318Pre time 0 Post time 0.04681318
SGPUBICGS:  Solving for p, Initial residual = 0.1534368, Final residual = 0.001476834, No Iterations 9
GPU: 145 iters: 6.875619 s: 32.17364 GB/s
Total exec time 301.2028
 Total comm time 0.04992451Pre time 0 Post time 0.04992451
SGPUBICGS:  Solving for p, Initial residual = 0.003722133, Final residual = 3.623639e-05, No Iterations 145
time step continuity errors : sum local = 8.61329e-12, global = -1.92649e-14, cumulative = -3.853346e-09
Moving mesh time step continuity errors : sum local = 8.61329e-12, global = -1.92649e-14, cumulative = -3.853365e-09
GPU: 161 iters: 7.604318 s: 32.30052 GB/s
Total exec time 308.8071
 Total comm time 0.05097498Pre time 0 Post time 0.05097498
SGPUBICGS:  Solving for p, Initial residual = 0.0009400576, Final residual = 9.105082e-06, No Iterations 161
GPU: 526 iters: 24.78187 s: 32.3814 GB/s
Total exec time 333.589
 Total comm time 0.0542992Pre time 0 Post time 0.0542992
SGPUBICGS:  Solving for p, Initial residual = 0.000329313, Final residual = 7.945809e-08, No Iterations 526
time step continuity errors : sum local = 1.885136e-14, global = -5.412102e-15, cumulative = -3.853371e-09
Moving mesh time step continuity errors : sum local = 1.885136e-14, global = -5.412102e-15, cumulative = -3.853376e-09
smoothSolver:  Solving for k, Initial residual = 0.001554905, Final residual = 6.190544e-10, No Iterations 1
ExecutionTime = 623.95 s  ClockTime = 630 s

Courant Number mean: 7.684428e-05 max: 0.002854615 velocity magnitude: 0.9516072
yForce = -4.142655
Y= -4.018942e-11
Vy= -5.251101e-06
Time = 3e-05

GAMGPCG:  Solving for cellDisplacementx, Initial residual = 0, Final residual = 0, No Iterations 0
Total solver time is 0
Total solver time is 0
Total solver time is 1
GAMGPCG:  Solving for cellDisplacementy, Initial residual = 0.5405213, Final residual = 8.589411e-10, No Iterations 1
GAMGPCG:  Solving for cellDisplacementz, Initial residual = 0, Final residual = 0, No Iterations 0
volume continuity errors : volume = 4.535015, max error = 1.040568e-08, sum local = 7.113162e-15, global = 3.27225e-18
smoothSolver:  Solving for Ux, Initial residual = 0.01761722, Final residual = 8.838981e-09, No Iterations 1
smoothSolver:  Solving for Uy, Initial residual = 0.001238775, Final residual = 1.698e-08, No Iterations 1
smoothSolver:  Solving for Uz, Initial residual = 0.3495732, Final residual = 1.737625e-06, No Iterations 1
GPU: 3 iters: 0.1692857 s: 27.03616 GB/s
Total exec time 333.7583
 Total comm time 0.05432128Pre time 0 Post time 0.05432128
SGPUBICGS:  Solving for p, Initial residual = 0.1088523, Final residual = 0.0006855186, No Iterations 3
GPU: 47 iters: 2.247588 s: 31.90253 GB/s
Total exec time 336.0059
 Total comm time 0.05461818Pre time 0 Post time 0.05461818
SGPUBICGS:  Solving for p, Initial residual = 0.001310562, Final residual = 1.270981e-05, No Iterations 47
time step continuity errors : sum local = 2.726558e-12, global = -9.975074e-15, cumulative = -3.853386e-09
Moving mesh time step continuity errors : sum local = 2.726558e-12, global = -9.975074e-15, cumulative = -3.853396e-09
GPU: 33 iters: 1.586045 s: 31.74259 GB/s
Total exec time 337.5919
 Total comm time 0.05482765Pre time 0 Post time 0.05482765
SGPUBICGS:  Solving for p, Initial residual = 0.000265955, Final residual = 9.950899e-06, No Iterations 33
GPU: 520 iters: 24.55416 s: 32.30891 GB/s
Total exec time 362.1461
 Total comm time 0.05809251Pre time 0 Post time 0.05809251
SGPUBICGS:  Solving for p, Initial residual = 0.0001041087, Final residual = 9.542201e-08, No Iterations 520
time step continuity errors : sum local = 2.046267e-14, global = -1.286442e-14, cumulative = -3.853409e-09
Moving mesh time step continuity errors : sum local = 2.046267e-14, global = -1.286442e-14, cumulative = -3.853422e-09
smoothSolver:  Solving for k, Initial residual = 0.001156976, Final residual = 4.665416e-10, No Iterations 1
ExecutionTime = 694.37 s  ClockTime = 701 s

Courant Number mean: 7.684432e-05 max: 0.002852247 velocity magnitude: 0.9508177
yForce = 0.7236193
Y= -6.532772e-11
Vy= -4.804219e-06
Time = 3.5e-05

GAMGPCG:  Solving for cellDisplacementx, Initial residual = 0, Final residual = 0, No Iterations 0
Total solver time is 0
Total solver time is 0
Total solver time is 1
GAMGPCG:  Solving for cellDisplacementy, Initial residual = 0.4559587, Final residual = 6.504477e-10, No Iterations 1
GAMGPCG:  Solving for cellDisplacementz, Initial residual = 0, Final residual = 0, No Iterations 0
volume continuity errors : volume = 4.535015, max error = 1.15476e-08, sum local = 7.124175e-15, global = -3.071032e-18
smoothSolver:  Solving for Ux, Initial residual = 0.01352799, Final residual = 6.763085e-09, No Iterations 1
smoothSolver:  Solving for Uy, Initial residual = 0.0009611247, Final residual = 1.252107e-08, No Iterations 1
smoothSolver:  Solving for Uz, Initial residual = 0.3740934, Final residual = 2.171029e-06, No Iterations 1
GPU: 2 iters: 0.1244579 s: 24.51611 GB/s
Total exec time 362.2705
 Total comm time 0.05810806Pre time 0 Post time 0.05810806
SGPUBICGS:  Solving for p, Initial residual = 0.09114376, Final residual = 0.0003506785, No Iterations 2
GPU: 23 iters: 1.115726 s: 31.44953 GB/s
Total exec time 363.3862
 Total comm time 0.05825494Pre time 0 Post time 0.05825494
SGPUBICGS:  Solving for p, Initial residual = 0.0005311547, Final residual = 9.894397e-06, No Iterations 23
time step continuity errors : sum local = 1.949096e-12, global = -2.13782e-14, cumulative = -3.853443e-09
Moving mesh time step continuity errors : sum local = 1.949096e-12, global = -2.13782e-14, cumulative = -3.853464e-09
GPU: 9 iters: 0.4534439 s: 30.28049 GB/s
Total exec time 363.8397
 Total comm time 0.05831482Pre time 0 Post time 0.05831482
SGPUBICGS:  Solving for p, Initial residual = 8.29771e-05, Final residual = 9.098312e-06, No Iterations 9
GPU: 570 iters: 27.00747 s: 32.19845 GB/s
Total exec time 390.8472
 Total comm time 0.06188352Pre time 0 Post time 0.06188352
SGPUBICGS:  Solving for p, Initial residual = 2.90548e-05, Final residual = 8.829588e-08, No Iterations 570
time step continuity errors : sum local = 1.739093e-14, global = 2.177618e-15, cumulative = -3.853462e-09
Moving mesh time step continuity errors : sum local = 1.739093e-14, global = 2.177618e-15, cumulative = -3.85346e-09
smoothSolver:  Solving for k, Initial residual = 0.0009097833, Final residual = 3.836374e-10, No Iterations 1
ExecutionTime = 764.87 s  ClockTime = 772 s

Courant Number mean: 7.684441e-05 max: 0.002849503 velocity magnitude: 0.9499029
yForce = 0.791173
Y= -8.812731e-11
Vy= -4.31562e-06
Time = 4e-05

GAMGPCG:  Solving for cellDisplacementx, Initial residual = 0, Final residual = 0, No Iterations 0
Total solver time is 0
Total solver time is 0
Total solver time is 1
GAMGPCG:  Solving for cellDisplacementy, Initial residual = 0.3262829, Final residual = 5.07941e-10, No Iterations 1
GAMGPCG:  Solving for cellDisplacementz, Initial residual = 0, Final residual = 0, No Iterations 0
volume continuity errors : volume = 4.535015, max error = 1.031097e-08, sum local = 7.128445e-15, global = 2.195293e-18
smoothSolver:  Solving for Ux, Initial residual = 0.01095398, Final residual = 5.433189e-09, No Iterations 1
smoothSolver:  Solving for Uy, Initial residual = 0.0008056677, Final residual = 9.998199e-09, No Iterations 1
smoothSolver:  Solving for Uz, Initial residual = 0.4838097, Final residual = 2.596735e-06, No Iterations 1
GPU: 2 iters: 0.1238431 s: 24.63782 GB/s
Total exec time 390.971
 Total comm time 0.0618991Pre time 0 Post time 0.0618991
SGPUBICGS:  Solving for p, Initial residual = 0.07497305, Final residual = 0.0001333295, No Iterations 2
GPU: 9 iters: 0.4561259 s: 30.10244 GB/s
Total exec time 391.4271
 Total comm time 0.06195843Pre time 0 Post time 0.06195843
SGPUBICGS:  Solving for p, Initial residual = 0.0002795975, Final residual = 9.903614e-06, No Iterations 9
time step continuity errors : sum local = 1.812438e-12, global = 2.46545e-14, cumulative = -3.853435e-09
Moving mesh time step continuity errors : sum local = 1.812438e-12, global = 2.46545e-14, cumulative = -3.853411e-09
GPU: 3 iters: 0.1723155 s: 26.56078 GB/s
Total exec time 391.5994
 Total comm time 0.06198016Pre time 0 Post time 0.06198016
SGPUBICGS:  Solving for p, Initial residual = 3.631011e-05, Final residual = 9.374299e-06, No Iterations 3
GPU: 261 iters: 12.34585 s: 32.25252 GB/s
Total exec time 403.9453
 Total comm time 0.0636167Pre time 0 Post time 0.0636167
SGPUBICGS:  Solving for p, Initial residual = 1.549472e-05, Final residual = 9.141867e-08, No Iterations 261
time step continuity errors : sum local = 1.672948e-14, global = 4.731809e-15, cumulative = -3.853406e-09
Moving mesh time step continuity errors : sum local = 1.672948e-14, global = 4.731809e-15, cumulative = -3.853401e-09
smoothSolver:  Solving for k, Initial residual = 0.0007437211, Final residual = 3.250583e-10, No Iterations 1
ExecutionTime = 820.17 s  ClockTime = 827 s

Courant Number mean: 7.684441e-05 max: 0.002846383 velocity magnitude: 0.9488628
yForce = -0.6853014
Y= -1.107634e-10
Vy= -4.738824e-06
Time = 4.5e-05

GAMGPCG:  Solving for cellDisplacementx, Initial residual = 0, Final residual = 0, No Iterations 0
Total solver time is 0
Total solver time is 0
Total solver time is 1
GAMGPCG:  Solving for cellDisplacementy, Initial residual = 0.2676785, Final residual = 3.507879e-10, No Iterations 1
GAMGPCG:  Solving for cellDisplacementz, Initial residual = 0, Final residual = 0, No Iterations 0
volume continuity errors : volume = 4.535015, max error = 1.00919e-08, sum local = 7.135513e-15, global = -1.159296e-18
smoothSolver:  Solving for Ux, Initial residual = 0.00935946, Final residual = 4.561352e-09, No Iterations 1
smoothSolver:  Solving for Uy, Initial residual = 0.0006808935, Final residual = 8.222079e-09, No Iterations 1
smoothSolver:  Solving for Uz, Initial residual = 0.4600561, Final residual = 1.881557e-06, No Iterations 1
GPU: 2 iters: 0.1245537 s: 24.49725 GB/s
Total exec time 404.0698
 Total comm time 0.06363261Pre time 0 Post time 0.06363261
SGPUBICGS:  Solving for p, Initial residual = 0.0627705, Final residual = 9.972904e-05, No Iterations 2
GPU: 8 iters: 0.4107716 s: 29.71211 GB/s
Total exec time 404.4806
 Total comm time 0.06368627Pre time 0 Post time 0.06368627
SGPUBICGS:  Solving for p, Initial residual = 0.0002070072, Final residual = 9.200521e-06, No Iterations 8
time step continuity errors : sum local = 1.577908e-12, global = 3.161349e-15, cumulative = -3.853398e-09
Moving mesh time step continuity errors : sum local = 1.577908e-12, global = 3.161349e-15, cumulative = -3.853395e-09
GPU: 2 iters: 0.1240651 s: 24.59373 GB/s
Total exec time 404.6047
 Total comm time 0.06370166Pre time 0 Post time 0.06370166
SGPUBICGS:  Solving for p, Initial residual = 2.340195e-05, Final residual = 9.430037e-06, No Iterations 2
GPU: 216 iters: 10.24922 s: 32.15193 GB/s
Total exec time 414.8539
 Total comm time 0.06897395Pre time 0 Post time 0.06897395
SGPUBICGS:  Solving for p, Initial residual = 1.149442e-05, Final residual = 9.817645e-08, No Iterations 216
time step continuity errors : sum local = 1.683692e-14, global = 1.298149e-14, cumulative = -3.853382e-09
Moving mesh time step continuity errors : sum local = 1.683692e-14, global = 1.298149e-14, cumulative = -3.853369e-09
smoothSolver:  Solving for k, Initial residual = 0.0006256176, Final residual = 2.83775e-10, No Iterations 1
ExecutionTime = 874.01 s  ClockTime = 881 s

Courant Number mean: 7.684441e-05 max: 0.002842882 velocity magnitude: 0.948246
yForce = 0.1958266
Y= -1.341552e-10
Vy= -4.617883e-06
Time = 5e-05

GAMGPCG:  Solving for cellDisplacementx, Initial residual = 0, Final residual = 0, No Iterations 0
Total solver time is 0
Total solver time is 0
Total solver time is 1
GAMGPCG:  Solving for cellDisplacementy, Initial residual = 0.2323041, Final residual = 3.408442e-10, No Iterations 1
GAMGPCG:  Solving for cellDisplacementz, Initial residual = 0, Final residual = 0, No Iterations 0
volume continuity errors : volume = 4.535015, max error = 1.042485e-08, sum local = 7.135043e-15, global = -6.986817e-19
smoothSolver:  Solving for Ux, Initial residual = 0.008278491, Final residual = 3.933805e-09, No Iterations 1
smoothSolver:  Solving for Uy, Initial residual = 0.0005947129, Final residual = 6.913126e-09, No Iterations 1
smoothSolver:  Solving for Uz, Initial residual = 0.2775038, Final residual = 7.485896e-07, No Iterations 1
GPU: 2 iters: 0.1254009 s: 24.33175 GB/s
Total exec time 414.9793
 Total comm time 0.06898947Pre time 0 Post time 0.06898947
SGPUBICGS:  Solving for p, Initial residual = 0.05636456, Final residual = 7.628853e-05, No Iterations 2
GPU: 6 iters: 0.3152876 s: 29.03276 GB/s
Total exec time 415.2946
 Total comm time 0.06903008Pre time 0 Post time 0.06903008
SGPUBICGS:  Solving for p, Initial residual = 0.0001603332, Final residual = 8.993161e-06, No Iterations 6
time step continuity errors : sum local = 1.455303e-12, global = 2.3108e-14, cumulative = -3.853346e-09
Moving mesh time step continuity errors : sum local = 1.455303e-12, global = 2.3108e-14, cumulative = -3.853323e-09
GPU: 1 iters: 0.07784861 s: 19.59716 GB/s
Total exec time 415.3724
 Total comm time 0.06903942Pre time 0 Post time 0.06903942
SGPUBICGS:  Solving for p, Initial residual = 1.886212e-05, Final residual = 9.558375e-06, No Iterations 1
GPU: 524 iters: 24.80151 s: 32.23274 GB/s
Total exec time 440.1739
 Total comm time 0.07616982Pre time 0 Post time 0.07616982
SGPUBICGS:  Solving for p, Initial residual = 1.057433e-05, Final residual = 9.970487e-08, No Iterations 524
time step continuity errors : sum local = 1.613418e-14, global = 1.573917e-14, cumulative = -3.853307e-09
Moving mesh time step continuity errors : sum local = 1.613418e-14, global = 1.573917e-14, cumulative = -3.853291e-09
smoothSolver:  Solving for k, Initial residual = 0.0005378998, Final residual = 2.535621e-10, No Iterations 1
ExecutionTime = 941.77 s  ClockTime = 949 s

yForce = 0.06607615
Y= -1.571426e-10
Vy= -4.57707e-06
End

Finalising parallel run
