 Data for JOB [29062,1] offset 0

 ========================   JOB MAP   ========================

 Data for node: ivb124	Num slots: 6	Max slots: 0	Num procs: 6
 	Process OMPI jobid: [29062,1] App: 0 Process rank: 0
 	Process OMPI jobid: [29062,1] App: 0 Process rank: 1
 	Process OMPI jobid: [29062,1] App: 0 Process rank: 2
 	Process OMPI jobid: [29062,1] App: 0 Process rank: 3
 	Process OMPI jobid: [29062,1] App: 0 Process rank: 4
 	Process OMPI jobid: [29062,1] App: 0 Process rank: 5

 =============================================================
[ivb124:39588] MCW rank 3 bound to socket 0[core 3[hwt 0]]: [./././B/./././././.][./././././././././.]
[ivb124:39588] MCW rank 4 bound to socket 0[core 4[hwt 0]]: [././././B/././././.][./././././././././.]
[ivb124:39588] MCW rank 5 bound to socket 0[core 5[hwt 0]]: [./././././B/./././.][./././././././././.]
[ivb124:39588] MCW rank 0 bound to socket 0[core 0[hwt 0]]: [B/././././././././.][./././././././././.]
[ivb124:39588] MCW rank 1 bound to socket 0[core 1[hwt 0]]: [./B/./././././././.][./././././././././.]
[ivb124:39588] MCW rank 2 bound to socket 0[core 2[hwt 0]]: [././B/././././././.][./././././././././.]
/*---------------------------------------------------------------------------*\
| =========                 |                                                 |
| \\      /  F ield         | foam-extend: Open Source CFD                    |
|  \\    /   O peration     | Version:     3.1                                |
|   \\  /    A nd           | Web:         http://www.extend-project.de       |
|    \\/     M anipulation  |                                                 |
\*---------------------------------------------------------------------------*/
Build    : 3.1-e2da948002a2
Exec     : pimpleDyMFoam -parallel
Date     : May 24 2016
Time     : 12:15:37
Host     : ivb124
PID      : 39646
CtrlDict : /home-2/vplatonov/foam/foam-extend-3.1/etc/controlDict
Case     : /home/vplatonov/tests/3D-mesh1-of3.1
nProcs   : 6
Slaves : 
5
(
ivb124.39632
ivb124.39641
ivb124.39633
ivb124.39644
ivb124.39637
)

Pstream initialized with:
    floatTransfer     : 0
    nProcsSimpleSum   : 0
    commsType         : blocking
SigFpe   : Enabling floating point exception trapping (FOAM_SIGFPE).

// * * * * * * * * * * * * * * * * * * * * * * * * * * * * * * * * * * * * * //
Create time

Create dynamic mesh for time = 0

Selecting dynamicFvMesh dynamicMotionSolverFvMesh
Selecting motion solver: displacementLaplacian
Selecting motion diffusion: quadratic
Selecting motion diffusion: inverseDistance
Reading field p

Reading field U

Reading/calculating face flux field phi

Selecting incompressible transport model Newtonian
Selecting turbulence model type LESModel
Selecting LES turbulence model oneEqEddy
oneEqEddyCoeffs
{
    ce              1.048;
    ck              0.094;
}

Reading field rAU if present


Starting time loop

Courant Number mean: 0 max: 0.0007592825 velocity magnitude: 0.4779
Reading old state
Before setting displacements
GAMGPCG:  Solving for cellDisplacementx, Initial residual = 0, Final residual = 0, No Iterations 0
GAMGPCG:  Solving for cellDisplacementy, Initial residual = 0, Final residual = 0, No Iterations 0
GAMGPCG:  Solving for cellDisplacementz, Initial residual = 0, Final residual = 0, No Iterations 0
Time = 5e-06

GAMGPCG:  Solving for cellDisplacementx, Initial residual = 0, Final residual = 0, No Iterations 0
GAMGPCG:  Solving for cellDisplacementy, Initial residual = 0, Final residual = 0, No Iterations 0
GAMGPCG:  Solving for cellDisplacementz, Initial residual = 0, Final residual = 0, No Iterations 0
volume continuity errors : volume = 4.535015, max error = 0, sum local = 0, global = 0
smoothSolver:  Solving for Ux, Initial residual = 1, Final residual = 2.285051e-08, No Iterations 1
smoothSolver:  Solving for Uy, Initial residual = 1, Final residual = 2.172388e-08, No Iterations 1
smoothSolver:  Solving for Uz, Initial residual = 0.9999962, Final residual = 4.2334e-08, No Iterations 1
Created persistent data with name p
Computing AINV with droptol 0.02
GPU: 691 iters: 13.19478 s: 52.35191 GB/s
OGPUPCG:  Solving for p, Initial residual = 1, Final residual = 0.009647088, No Iterations 691
Computing AINV with droptol 0.02
GPU: 155 iters: 3.08775 s: 50.18178 GB/s
OGPUPCG:  Solving for p, Initial residual = 0.000469916, Final residual = 9.875537e-06, No Iterations 155
time step continuity errors : sum local = 2.223389e-09, global = -1.882108e-12, cumulative = -1.882108e-12
Moving mesh time step continuity errors : sum local = 2.223389e-09, global = -1.882108e-12, cumulative = -3.764217e-12
GPU: 142 iters: 2.820759 s: 50.32443 GB/s
OGPUPCG:  Solving for p, Initial residual = 0.0001094411, Final residual = 9.824757e-06, No Iterations 142
GPU: 722 iters: 14.227 s: 50.73183 GB/s
OGPUPCG:  Solving for p, Initial residual = 4.642625e-05, Final residual = 9.814702e-08, No Iterations 722
time step continuity errors : sum local = 2.210808e-11, global = -1.600436e-13, cumulative = -3.924261e-12
Moving mesh time step continuity errors : sum local = 2.210808e-11, global = -1.600436e-13, cumulative = -4.084304e-12
smoothSolver:  Solving for k, Initial residual = 1, Final residual = 1.260094e-11, No Iterations 2
ExecutionTime = 135.51 s  ClockTime = 137 s

Courant Number mean: 7.683021e-05 max: 0.002865072 velocity magnitude: 0.9550931
yForce = -0.8143385
Y= -1.257246e-12
Vy= -5.028978e-07
Time = 1e-05

GAMGPCG:  Solving for cellDisplacementx, Initial residual = 0, Final residual = 0, No Iterations 0
GAMGPCG:  Solving for cellDisplacementy, Initial residual = 1, Final residual = 3.309923e-09, No Iterations 1
GAMGPCG:  Solving for cellDisplacementz, Initial residual = 0, Final residual = 0, No Iterations 0
volume continuity errors : volume = 4.535015, max error = 8.67059e-09, sum local = 5.958879e-15, global = -1.843467e-18
smoothSolver:  Solving for Ux, Initial residual = 0.9975504, Final residual = 4.958094e-07, No Iterations 1
smoothSolver:  Solving for Uy, Initial residual = 0.3333301, Final residual = 1.449488e-06, No Iterations 1
smoothSolver:  Solving for Uz, Initial residual = 0.2821555, Final residual = 7.732118e-07, No Iterations 1
GPU: 692 iters: 13.67022 s: 50.60427 GB/s
OGPUPCG:  Solving for p, Initial residual = 0.003643888, Final residual = 3.611756e-05, No Iterations 692
GPU: 226 iters: 4.479881 s: 50.43111 GB/s
OGPUPCG:  Solving for p, Initial residual = 0.001404693, Final residual = 1.390302e-05, No Iterations 226
time step continuity errors : sum local = 1.045039e-09, global = -7.579434e-13, cumulative = -4.842248e-12
Moving mesh time step continuity errors : sum local = 1.045039e-09, global = -7.579434e-13, cumulative = -5.600191e-12
GPU: 301 iters: 5.928024 s: 50.759 GB/s
OGPUPCG:  Solving for p, Initial residual = 0.0003132089, Final residual = 9.959871e-06, No Iterations 301
GPU: 668 iters: 13.14677 s: 50.79416 GB/s
OGPUPCG:  Solving for p, Initial residual = 0.0001184844, Final residual = 9.701255e-08, No Iterations 668
time step continuity errors : sum local = 7.284477e-12, global = -7.971514e-14, cumulative = -5.679906e-12
Moving mesh time step continuity errors : sum local = 7.284477e-12, global = -7.971514e-14, cumulative = -5.759621e-12
smoothSolver:  Solving for k, Initial residual = 0.008780205, Final residual = 4.661571e-09, No Iterations 1
ExecutionTime = 204.73 s  ClockTime = 207 s

Courant Number mean: 7.683241e-05 max: 0.002856925 velocity magnitude: 0.9523773
yForce = 1.363961
Y= -1.665932e-12
Vy= 3.394225e-07
Time = 1.5e-05

GAMGPCG:  Solving for cellDisplacementx, Initial residual = 0, Final residual = 0, No Iterations 0
GAMGPCG:  Solving for cellDisplacementy, Initial residual = 0.2874426, Final residual = 1.720072e-09, No Iterations 1
GAMGPCG:  Solving for cellDisplacementz, Initial residual = 0, Final residual = 0, No Iterations 0
volume continuity errors : volume = 4.535015, max error = 1.175094e-08, sum local = 6.568063e-15, global = -5.798886e-18
smoothSolver:  Solving for Ux, Initial residual = 0.9921624, Final residual = 4.935412e-07, No Iterations 1
smoothSolver:  Solving for Uy, Initial residual = 0.1847401, Final residual = 8.692809e-07, No Iterations 1
smoothSolver:  Solving for Uz, Initial residual = 0.782091, Final residual = 1.912883e-06, No Iterations 1
GPU: 689 iters: 13.60718 s: 50.61829 GB/s
OGPUPCG:  Solving for p, Initial residual = 0.00280081, Final residual = 2.730771e-05, No Iterations 689
GPU: 223 iters: 4.410389 s: 50.54573 GB/s
OGPUPCG:  Solving for p, Initial residual = 0.09890244, Final residual = 0.000987733, No Iterations 223
time step continuity errors : sum local = 3.452946e-10, global = 2.301105e-13, cumulative = -5.529511e-12
Moving mesh time step continuity errors : sum local = 3.452946e-10, global = 2.301105e-13, cumulative = -5.2994e-12
GPU: 414 iters: 8.182407 s: 50.57965 GB/s
OGPUPCG:  Solving for p, Initial residual = 0.02238181, Final residual = 0.0002227983, No Iterations 414
GPU: 883 iters: 17.41316 s: 50.69202 GB/s
OGPUPCG:  Solving for p, Initial residual = 0.007525994, Final residual = 9.981366e-08, No Iterations 883
time step continuity errors : sum local = 3.171217e-14, global = -1.528844e-16, cumulative = -5.299553e-12
Moving mesh time step continuity errors : sum local = 3.171217e-14, global = -1.528844e-16, cumulative = -5.299706e-12
smoothSolver:  Solving for k, Initial residual = 0.003835062, Final residual = 2.145979e-09, No Iterations 1
ExecutionTime = 280.87 s  ClockTime = 283 s

Courant Number mean: 7.683292e-05 max: 0.002858857 velocity magnitude: 0.9530212
yForce = -0.03717042
Y= -2.620781e-14
Vy= 3.164673e-07
Time = 2e-05

GAMGPCG:  Solving for cellDisplacementx, Initial residual = 0, Final residual = 0, No Iterations 0
GAMGPCG:  Solving for cellDisplacementy, Initial residual = 1, Final residual = 1.859099e-09, No Iterations 1
GAMGPCG:  Solving for cellDisplacementz, Initial residual = 0, Final residual = 0, No Iterations 0
volume continuity errors : volume = 4.535015, max error = 8.215919e-09, sum local = 6.419011e-15, global = -6.344244e-18
smoothSolver:  Solving for Ux, Initial residual = 0.05066631, Final residual = 5.137839e-08, No Iterations 1
smoothSolver:  Solving for Uy, Initial residual = 0.01317402, Final residual = 9.315709e-08, No Iterations 1
smoothSolver:  Solving for Uz, Initial residual = 0.9170095, Final residual = 2.367615e-06, No Iterations 1
GPU: 103 iters: 2.057065 s: 50.0548 GB/s
OGPUPCG:  Solving for p, Initial residual = 0.2265666, Final residual = 0.002258444, No Iterations 103
GPU: 348 iters: 6.88485 s: 50.52907 GB/s
OGPUPCG:  Solving for p, Initial residual = 0.01254711, Final residual = 0.0001247617, No Iterations 348
time step continuity errors : sum local = 3.365663e-11, global = -3.042167e-12, cumulative = -8.341873e-12
Moving mesh time step continuity errors : sum local = 3.365663e-11, global = -3.042167e-12, cumulative = -1.138404e-11
GPU: 550 iters: 10.85007 s: 50.67418 GB/s
OGPUPCG:  Solving for p, Initial residual = 0.00423707, Final residual = 4.206765e-05, No Iterations 550
GPU: 810 iters: 15.99043 s: 50.63855 GB/s
OGPUPCG:  Solving for p, Initial residual = 0.001800548, Final residual = 9.952413e-08, No Iterations 810
time step continuity errors : sum local = 2.668872e-14, global = -1.12197e-16, cumulative = -1.138415e-11
Moving mesh time step continuity errors : sum local = 2.668872e-14, global = -1.12197e-16, cumulative = -1.138426e-11
smoothSolver:  Solving for k, Initial residual = 0.002273125, Final residual = 1.353283e-09, No Iterations 1
ExecutionTime = 349.26 s  ClockTime = 351 s

Courant Number mean: 7.683347e-05 max: 0.002856743 velocity magnitude: 0.9523164
yForce = -0.3157735
Y= 1.068609e-12
Vy= 1.214597e-07
Time = 2.5e-05

GAMGPCG:  Solving for cellDisplacementx, Initial residual = 0, Final residual = 0, No Iterations 0
GAMGPCG:  Solving for cellDisplacementy, Initial residual = 0.841398, Final residual = 3.135572e-09, No Iterations 1
GAMGPCG:  Solving for cellDisplacementz, Initial residual = 0, Final residual = 0, No Iterations 0
volume continuity errors : volume = 4.535015, max error = 9.504585e-09, sum local = 6.495316e-15, global = 1.543271e-17
smoothSolver:  Solving for Ux, Initial residual = 0.02706944, Final residual = 1.7956e-08, No Iterations 1
smoothSolver:  Solving for Uy, Initial residual = 0.004546368, Final residual = 3.169666e-08, No Iterations 1
smoothSolver:  Solving for Uz, Initial residual = 0.7635115, Final residual = 2.51791e-06, No Iterations 1
GPU: 28 iters: 0.5665081 s: 49.40927 GB/s
OGPUPCG:  Solving for p, Initial residual = 0.1533792, Final residual = 0.00146038, No Iterations 28
GPU: 389 iters: 7.682998 s: 50.61455 GB/s
OGPUPCG:  Solving for p, Initial residual = 0.003849488, Final residual = 3.787365e-05, No Iterations 389
time step continuity errors : sum local = 9.003912e-12, global = 6.408884e-13, cumulative = -1.074338e-11
Moving mesh time step continuity errors : sum local = 9.003912e-12, global = 6.408884e-13, cumulative = -1.010249e-11
GPU: 565 iters: 11.16883 s: 50.57049 GB/s
OGPUPCG:  Solving for p, Initial residual = 0.001011869, Final residual = 1.0117e-05, No Iterations 565
GPU: 773 iters: 15.25878 s: 50.64261 GB/s
OGPUPCG:  Solving for p, Initial residual = 0.0003967569, Final residual = 9.848392e-08, No Iterations 773
time step continuity errors : sum local = 2.33395e-14, global = -8.177351e-18, cumulative = -1.010249e-11
Moving mesh time step continuity errors : sum local = 2.33395e-14, global = -8.177351e-18, cumulative = -1.01025e-11
smoothSolver:  Solving for k, Initial residual = 0.001554793, Final residual = 9.811125e-10, No Iterations 1
ExecutionTime = 416.36 s  ClockTime = 419 s

Courant Number mean: 7.68336e-05 max: 0.002854609 velocity magnitude: 0.9516052
yForce = 0.2168933
Y= 2.010766e-12
Vy= 2.554028e-07
Time = 3e-05

GAMGPCG:  Solving for cellDisplacementx, Initial residual = 0, Final residual = 0, No Iterations 0
GAMGPCG:  Solving for cellDisplacementy, Initial residual = 0.51127, Final residual = 1.858769e-09, No Iterations 1
GAMGPCG:  Solving for cellDisplacementz, Initial residual = 0, Final residual = 0, No Iterations 0
volume continuity errors : volume = 4.535015, max error = 9.687811e-09, sum local = 6.648438e-15, global = -6.895642e-19
smoothSolver:  Solving for Ux, Initial residual = 0.01761464, Final residual = 8.81104e-09, No Iterations 1
smoothSolver:  Solving for Uy, Initial residual = 0.001237495, Final residual = 1.620749e-08, No Iterations 1
smoothSolver:  Solving for Uz, Initial residual = 0.3847822, Final residual = 2.517901e-06, No Iterations 1
GPU: 4 iters: 0.09802489 s: 40.79248 GB/s
OGPUPCG:  Solving for p, Initial residual = 0.1088624, Final residual = 0.0008964312, No Iterations 4
GPU: 144 iters: 2.858721 s: 50.35554 GB/s
OGPUPCG:  Solving for p, Initial residual = 0.001621124, Final residual = 1.593186e-05, No Iterations 144
time step continuity errors : sum local = 3.41799e-12, global = -9.882698e-17, cumulative = -1.01026e-11
Moving mesh time step continuity errors : sum local = 3.41799e-12, global = -9.882698e-17, cumulative = -1.01027e-11
GPU: 29 iters: 0.5910869 s: 49.04596 GB/s
OGPUPCG:  Solving for p, Initial residual = 0.0002974446, Final residual = 9.374754e-06, No Iterations 29
GPU: 648 iters: 12.7914 s: 50.64231 GB/s
OGPUPCG:  Solving for p, Initial residual = 0.0001163354, Final residual = 9.802178e-08, No Iterations 648
time step continuity errors : sum local = 2.101987e-14, global = 3.759662e-17, cumulative = -1.010266e-11
Moving mesh time step continuity errors : sum local = 2.101987e-14, global = 3.759662e-17, cumulative = -1.010263e-11
smoothSolver:  Solving for k, Initial residual = 0.001156912, Final residual = 7.628624e-10, No Iterations 1
ExecutionTime = 465.51 s  ClockTime = 468 s

Courant Number mean: 7.683369e-05 max: 0.002852247 velocity magnitude: 0.9508177
yForce = -0.04721049
Y= 3.214891e-12
Vy= 2.262474e-07
Time = 3.5e-05

GAMGPCG:  Solving for cellDisplacementx, Initial residual = 0, Final residual = 0, No Iterations 0
GAMGPCG:  Solving for cellDisplacementy, Initial residual = 0.4404078, Final residual = 1.444477e-09, No Iterations 1
GAMGPCG:  Solving for cellDisplacementz, Initial residual = 0, Final residual = 0, No Iterations 0
volume continuity errors : volume = 4.535015, max error = 9.003241e-09, sum local = 6.711556e-15, global = -1.439673e-18
smoothSolver:  Solving for Ux, Initial residual = 0.01352732, Final residual = 6.938547e-09, No Iterations 1
smoothSolver:  Solving for Uy, Initial residual = 0.0009592313, Final residual = 1.216101e-08, No Iterations 1
smoothSolver:  Solving for Uz, Initial residual = 0.2530967, Final residual = 1.827019e-06, No Iterations 1
GPU: 2 iters: 0.05919424 s: 33.77591 GB/s
OGPUPCG:  Solving for p, Initial residual = 0.09114944, Final residual = 0.0007632762, No Iterations 2
GPU: 123 iters: 2.43872 s: 50.41964 GB/s
OGPUPCG:  Solving for p, Initial residual = 0.0009479671, Final residual = 9.747574e-06, No Iterations 123
time step continuity errors : sum local = 1.920378e-12, global = -2.67414e-17, cumulative = -1.010265e-11
Moving mesh time step continuity errors : sum local = 1.920378e-12, global = -2.67414e-17, cumulative = -1.010268e-11
GPU: 24 iters: 0.493825 s: 48.58415 GB/s
OGPUPCG:  Solving for p, Initial residual = 9.115172e-05, Final residual = 9.611404e-06, No Iterations 24
GPU: 642 iters: 12.66548 s: 50.6722 GB/s
OGPUPCG:  Solving for p, Initial residual = 3.204256e-05, Final residual = 9.931625e-08, No Iterations 642
time step continuity errors : sum local = 1.95612e-14, global = 8.441858e-17, cumulative = -1.010259e-11
Moving mesh time step continuity errors : sum local = 1.95612e-14, global = 8.441858e-17, cumulative = -1.010251e-11
smoothSolver:  Solving for k, Initial residual = 0.0009097416, Final residual = 6.330637e-10, No Iterations 1
ExecutionTime = 513.66 s  ClockTime = 516 s

Courant Number mean: 7.683374e-05 max: 0.002849501 velocity magnitude: 0.9499024
yForce = -0.04323143
Y= 4.279383e-12
Vy= 1.995493e-07
Time = 4e-05

GAMGPCG:  Solving for cellDisplacementx, Initial residual = 0, Final residual = 0, No Iterations 0
GAMGPCG:  Solving for cellDisplacementy, Initial residual = 0.3153723, Final residual = 1.085717e-09, No Iterations 1
GAMGPCG:  Solving for cellDisplacementz, Initial residual = 0, Final residual = 0, No Iterations 0
volume continuity errors : volume = 4.535015, max error = 9.161333e-09, sum local = 6.751232e-15, global = 4.451905e-18
smoothSolver:  Solving for Ux, Initial residual = 0.01095196, Final residual = 5.674931e-09, No Iterations 1
smoothSolver:  Solving for Uy, Initial residual = 0.000807458, Final residual = 9.760271e-09, No Iterations 1
smoothSolver:  Solving for Uz, Initial residual = 0.2039421, Final residual = 1.711284e-06, No Iterations 1
GPU: 2 iters: 0.06022416 s: 33.19829 GB/s
OGPUPCG:  Solving for p, Initial residual = 0.0749728, Final residual = 0.0003903036, No Iterations 2
GPU: 39 iters: 0.7903421 s: 49.32942 GB/s
OGPUPCG:  Solving for p, Initial residual = 0.0005379786, Final residual = 9.704301e-06, No Iterations 39
time step continuity errors : sum local = 1.776035e-12, global = -1.282537e-16, cumulative = -1.010264e-11
Moving mesh time step continuity errors : sum local = 1.776035e-12, global = -1.282537e-16, cumulative = -1.010277e-11
GPU: 2 iters: 0.05907069 s: 33.84656 GB/s
OGPUPCG:  Solving for p, Initial residual = 3.877454e-05, Final residual = 8.954121e-06, No Iterations 2
GPU: 643 iters: 12.65794 s: 50.78138 GB/s
OGPUPCG:  Solving for p, Initial residual = 1.440122e-05, Final residual = 9.593863e-08, No Iterations 643
time step continuity errors : sum local = 1.755627e-14, global = 3.123953e-18, cumulative = -1.010276e-11
Moving mesh time step continuity errors : sum local = 1.755627e-14, global = 3.123953e-18, cumulative = -1.010276e-11
smoothSolver:  Solving for k, Initial residual = 0.000743692, Final residual = 5.397259e-10, No Iterations 1
ExecutionTime = 559.18 s  ClockTime = 562 s

Courant Number mean: 7.683376e-05 max: 0.002846381 velocity magnitude: 0.9488623
yForce = 0.04223831
Y= 5.34234e-12
Vy= 2.256334e-07
Time = 4.5e-05

GAMGPCG:  Solving for cellDisplacementx, Initial residual = 0, Final residual = 0, No Iterations 0
GAMGPCG:  Solving for cellDisplacementy, Initial residual = 0.260589, Final residual = 8.517472e-10, No Iterations 1
GAMGPCG:  Solving for cellDisplacementz, Initial residual = 0, Final residual = 0, No Iterations 0
volume continuity errors : volume = 4.535015, max error = 8.270926e-09, sum local = 6.763152e-15, global = 4.695462e-18
smoothSolver:  Solving for Ux, Initial residual = 0.009356456, Final residual = 4.833091e-09, No Iterations 1
smoothSolver:  Solving for Uy, Initial residual = 0.0006792583, Final residual = 8.064226e-09, No Iterations 1
smoothSolver:  Solving for Uz, Initial residual = 0.1881161, Final residual = 1.404847e-06, No Iterations 1
GPU: 2 iters: 0.05888586 s: 33.95279 GB/s
OGPUPCG:  Solving for p, Initial residual = 0.06276937, Final residual = 0.0003142412, No Iterations 2
GPU: 18 iters: 0.3738581 s: 48.1307 GB/s
OGPUPCG:  Solving for p, Initial residual = 0.0004227409, Final residual = 9.60373e-06, No Iterations 18
time step continuity errors : sum local = 1.647064e-12, global = -7.539015e-17, cumulative = -1.010284e-11
Moving mesh time step continuity errors : sum local = 1.647064e-12, global = -7.539015e-17, cumulative = -1.010291e-11
GPU: 0 iters: 0.01904454 s: 0 GB/s
OGPUPCG:  Solving for p, Initial residual = 2.490411e-05, Final residual = 8.664253e-06, No Iterations 0
GPU: 414 iters: 8.170599 s: 50.65274 GB/s
OGPUPCG:  Solving for p, Initial residual = 9.934145e-06, Final residual = 9.977979e-08, No Iterations 414
time step continuity errors : sum local = 1.711147e-14, global = 1.482389e-15, cumulative = -1.010143e-11
Moving mesh time step continuity errors : sum local = 1.711147e-14, global = 1.482389e-15, cumulative = -1.009995e-11
smoothSolver:  Solving for k, Initial residual = 0.0006255964, Final residual = 4.717645e-10, No Iterations 1
ExecutionTime = 599.19 s  ClockTime = 602 s

Courant Number mean: 7.683376e-05 max: 0.00284288 velocity magnitude: 0.9482452
yForce = -0.01230763
Y= 6.451505e-12
Vy= 2.180325e-07
Time = 5e-05

GAMGPCG:  Solving for cellDisplacementx, Initial residual = 0, Final residual = 0, No Iterations 0
GAMGPCG:  Solving for cellDisplacementy, Initial residual = 0.2312742, Final residual = 3.028885e-10, No Iterations 1
GAMGPCG:  Solving for cellDisplacementz, Initial residual = 0, Final residual = 0, No Iterations 0
volume continuity errors : volume = 4.535015, max error = 7.886063e-09, sum local = 6.71699e-15, global = -9.838641e-19
smoothSolver:  Solving for Ux, Initial residual = 0.008276688, Final residual = 4.218618e-09, No Iterations 1
smoothSolver:  Solving for Uy, Initial residual = 0.0005943366, Final residual = 6.844214e-09, No Iterations 1
smoothSolver:  Solving for Uz, Initial residual = 0.1320873, Final residual = 1.034873e-06, No Iterations 1
GPU: 2 iters: 0.05877664 s: 34.01588 GB/s
OGPUPCG:  Solving for p, Initial residual = 0.0563637, Final residual = 0.0002638697, No Iterations 2
GPU: 15 iters: 0.315255 s: 47.56481 GB/s
OGPUPCG:  Solving for p, Initial residual = 0.0003486758, Final residual = 9.337894e-06, No Iterations 15
time step continuity errors : sum local = 1.511069e-12, global = 3.440506e-15, cumulative = -1.009651e-11
Moving mesh time step continuity errors : sum local = 1.511069e-12, global = 3.440506e-15, cumulative = -1.009307e-11
GPU: 0 iters: 0.01913597 s: 0 GB/s
OGPUPCG:  Solving for p, Initial residual = 1.963078e-05, Final residual = 7.756225e-06, No Iterations 0
GPU: 640 iters: 12.59747 s: 50.78708 GB/s
OGPUPCG:  Solving for p, Initial residual = 8.465707e-06, Final residual = 9.663316e-08, No Iterations 640
time step continuity errors : sum local = 1.563681e-14, global = -3.838758e-17, cumulative = -1.00931e-11
Moving mesh time step continuity errors : sum local = 1.563681e-14, global = -3.838758e-17, cumulative = -1.009314e-11
smoothSolver:  Solving for k, Initial residual = 0.0005378837, Final residual = 4.204626e-10, No Iterations 1
ExecutionTime = 644.39 s  ClockTime = 647 s

yForce = -0.004521153
Y= 7.534686e-12
Vy= 2.152401e-07
End

Finalising parallel run
