 Data for JOB [53780,1] offset 0

 ========================   JOB MAP   ========================

 Data for node: ivb124	Num slots: 4	Max slots: 0	Num procs: 4
 	Process OMPI jobid: [53780,1] App: 0 Process rank: 0
 	Process OMPI jobid: [53780,1] App: 0 Process rank: 1
 	Process OMPI jobid: [53780,1] App: 0 Process rank: 2
 	Process OMPI jobid: [53780,1] App: 0 Process rank: 3

 =============================================================
[ivb124:14646] MCW rank 2 bound to socket 0[core 2[hwt 0]]: [././B/././././././.][./././././././././.]
[ivb124:14646] MCW rank 3 bound to socket 0[core 3[hwt 0]]: [./././B/./././././.][./././././././././.]
[ivb124:14646] MCW rank 0 bound to socket 0[core 0[hwt 0]]: [B/././././././././.][./././././././././.]
[ivb124:14646] MCW rank 1 bound to socket 0[core 1[hwt 0]]: [./B/./././././././.][./././././././././.]
0
1
2
3
/*---------------------------------------------------------------------------*\
| =========                 |                                                 |
| \\      /  F ield         | foam-extend: Open Source CFD                    |
|  \\    /   O peration     | Version:     3.1                                |
|   \\  /    A nd           | Web:         http://www.extend-project.de       |
|    \\/     M anipulation  |                                                 |
\*---------------------------------------------------------------------------*/
Build    : 3.1-e2da948002a2
Exec     : pimpleDyMFoam -parallel
Date     : May 23 2016
Time     : 23:36:06
Host     : ivb124
PID      : 14677
CtrlDict : /home-2/vplatonov/foam/foam-extend-3.1/etc/controlDict
Case     : /home/vplatonov/tests/3D-mesh1-of3.1
nProcs   : 4
Slaves : 
3
(
ivb124.14679
ivb124.14685
ivb124.14690
)

Pstream initialized with:
    floatTransfer     : 0
    nProcsSimpleSum   : 0
    commsType         : blocking
SigFpe   : Enabling floating point exception trapping (FOAM_SIGFPE).

// * * * * * * * * * * * * * * * * * * * * * * * * * * * * * * * * * * * * * //
Create time

Create dynamic mesh for time = 0

Selecting dynamicFvMesh dynamicMotionSolverFvMesh
Selecting motion solver: displacementLaplacian
Selecting motion diffusion: quadratic
Selecting motion diffusion: inverseDistance
Reading field p

Reading field U

Reading/calculating face flux field phi

Selecting incompressible transport model Newtonian
Selecting turbulence model type LESModel
Selecting LES turbulence model oneEqEddy
oneEqEddyCoeffs
{
    ce              1.048;
    ck              0.094;
}

Reading field rAU if present


Starting time loop

Courant Number mean: 0 max: 0.0007592825 velocity magnitude: 0.4779
Reading old state
Before setting displacements
GAMGPCG:  Solving for cellDisplacementx, Initial residual = 0, Final residual = 0, No Iterations 0
GAMGPCG:  Solving for cellDisplacementy, Initial residual = 0, Final residual = 0, No Iterations 0
GAMGPCG:  Solving for cellDisplacementz, Initial residual = 0, Final residual = 0, No Iterations 0
Time = 5e-06

GAMGPCG:  Solving for cellDisplacementx, Initial residual = 0, Final residual = 0, No Iterations 0
GAMGPCG:  Solving for cellDisplacementy, Initial residual = 0, Final residual = 0, No Iterations 0
GAMGPCG:  Solving for cellDisplacementz, Initial residual = 0, Final residual = 0, No Iterations 0
volume continuity errors : volume = 4.535015, max error = 0, sum local = 0, global = 0
smoothSolver:  Solving for Ux, Initial residual = 1, Final residual = 9.457309e-09, No Iterations 1
smoothSolver:  Solving for Uy, Initial residual = 1, Final residual = 1.115892e-08, No Iterations 1
smoothSolver:  Solving for Uz, Initial residual = 0.9999962, Final residual = 4.021583e-08, No Iterations 1
Created persistent data with name p
Computing AINV with droptol 0.02
GPU: 888 iters: 17.77159 s: 73.27587 GB/s
SGPUPCG:  Solving for p, Initial residual = 1, Final residual = 0.009827539, No Iterations 888
Computing AINV with droptol 0.02
GPU: 163 iters: 3.451789 s: 69.24965 GB/s
SGPUPCG:  Solving for p, Initial residual = 0.0004703789, Final residual = 9.887168e-06, No Iterations 163
time step continuity errors : sum local = 2.226015e-09, global = 9.624135e-12, cumulative = 9.624135e-12
Moving mesh time step continuity errors : sum local = 2.226015e-09, global = 9.624135e-12, cumulative = 1.924827e-11
GPU: 174 iters: 3.667047 s: 69.58361 GB/s
SGPUPCG:  Solving for p, Initial residual = 0.0001097229, Final residual = 9.979832e-06, No Iterations 174
GPU: 781 iters: 16.29305 s: 70.29476 GB/s
SGPUPCG:  Solving for p, Initial residual = 4.681563e-05, Final residual = 9.762295e-08, No Iterations 781
time step continuity errors : sum local = 2.199009e-11, global = -1.09517e-13, cumulative = 1.913875e-11
Moving mesh time step continuity errors : sum local = 2.199009e-11, global = -1.09517e-13, cumulative = 1.902924e-11
smoothSolver:  Solving for k, Initial residual = 1, Final residual = 1.495208e-11, No Iterations 2
ExecutionTime = 193.36 s  ClockTime = 196 s

Courant Number mean: 7.684085e-05 max: 0.002865091 velocity magnitude: 0.9550994
yForce = -0.8974696
Y= -1.38559e-12
Vy= -5.542358e-07
Time = 1e-05

GAMGPCG:  Solving for cellDisplacementx, Initial residual = 0, Final residual = 0, No Iterations 0
GAMGPCG:  Solving for cellDisplacementy, Initial residual = 1, Final residual = 1.450815e-09, No Iterations 1
GAMGPCG:  Solving for cellDisplacementz, Initial residual = 0, Final residual = 0, No Iterations 0
volume continuity errors : volume = 4.535015, max error = 9.879199e-09, sum local = 5.773165e-15, global = 6.114802e-19
smoothSolver:  Solving for Ux, Initial residual = 0.9975511, Final residual = 5.468357e-07, No Iterations 1
smoothSolver:  Solving for Uy, Initial residual = 0.333327, Final residual = 1.328043e-06, No Iterations 1
smoothSolver:  Solving for Uz, Initial residual = 0.3326485, Final residual = 7.228535e-07, No Iterations 1
GPU: 902 iters: 18.7623 s: 70.5009 GB/s
SGPUPCG:  Solving for p, Initial residual = 0.003643798, Final residual = 3.510658e-05, No Iterations 902
GPU: 242 iters: 5.084835 s: 69.79314 GB/s
SGPUPCG:  Solving for p, Initial residual = 0.001403024, Final residual = 1.400857e-05, No Iterations 242
time step continuity errors : sum local = 1.052979e-09, global = -4.428719e-13, cumulative = 1.858636e-11
Moving mesh time step continuity errors : sum local = 1.052979e-09, global = -4.428719e-13, cumulative = 1.814349e-11
GPU: 354 iters: 7.395214 s: 70.19833 GB/s
SGPUPCG:  Solving for p, Initial residual = 0.0003137245, Final residual = 9.979455e-06, No Iterations 354
GPU: 808 iters: 16.79888 s: 70.53509 GB/s
SGPUPCG:  Solving for p, Initial residual = 0.0001188024, Final residual = 9.972129e-08, No Iterations 808
time step continuity errors : sum local = 7.487919e-12, global = -3.008321e-14, cumulative = 1.811341e-11
Moving mesh time step continuity errors : sum local = 7.487919e-12, global = -3.008321e-14, cumulative = 1.808333e-11
smoothSolver:  Solving for k, Initial residual = 0.008780187, Final residual = 3.634678e-09, No Iterations 1
ExecutionTime = 289.57 s  ClockTime = 292 s

Courant Number mean: 7.684303e-05 max: 0.00285692 velocity magnitude: 0.9523756
yForce = 1.844824
Y= -1.30857e-12
Vy= 5.850433e-07
Time = 1.5e-05

GAMGPCG:  Solving for cellDisplacementx, Initial residual = 0, Final residual = 0, No Iterations 0
GAMGPCG:  Solving for cellDisplacementy, Initial residual = 0.07088815, Final residual = 1.468712e-09, No Iterations 1
GAMGPCG:  Solving for cellDisplacementz, Initial residual = 0, Final residual = 0, No Iterations 0
volume continuity errors : volume = 4.535015, max error = 9.240499e-09, sum local = 6.361461e-15, global = -1.022855e-17
smoothSolver:  Solving for Ux, Initial residual = 0.9921627, Final residual = 5.446705e-07, No Iterations 1
smoothSolver:  Solving for Uy, Initial residual = 0.1847833, Final residual = 8.091407e-07, No Iterations 1
smoothSolver:  Solving for Uz, Initial residual = 0.7564945, Final residual = 1.43939e-06, No Iterations 1
GPU: 898 iters: 18.72637 s: 70.32295 GB/s
SGPUPCG:  Solving for p, Initial residual = 0.002800723, Final residual = 2.767701e-05, No Iterations 898
GPU: 237 iters: 4.981589 s: 69.76775 GB/s
SGPUPCG:  Solving for p, Initial residual = 0.09907234, Final residual = 0.0009895221, No Iterations 237
time step continuity errors : sum local = 3.45778e-10, global = 3.078773e-13, cumulative = 1.83912e-11
Moving mesh time step continuity errors : sum local = 3.45778e-10, global = 3.078773e-13, cumulative = 1.869908e-11
GPU: 502 iters: 10.47532 s: 70.27657 GB/s
SGPUPCG:  Solving for p, Initial residual = 0.02243143, Final residual = 0.0002237554, No Iterations 502
GPU: 1000 iters: 20.78689 s: 70.54802 GB/s
SGPUPCG:  Solving for p, Initial residual = 0.007543784, Final residual = 1.163825e-07, No Iterations 1000
time step continuity errors : sum local = 3.694807e-14, global = -4.903177e-17, cumulative = 1.869903e-11
Moving mesh time step continuity errors : sum local = 3.694807e-14, global = -4.903177e-17, cumulative = 1.869898e-11
smoothSolver:  Solving for k, Initial residual = 0.003835058, Final residual = 1.512651e-09, No Iterations 1
ExecutionTime = 393.13 s  ClockTime = 396 s

Courant Number mean: 7.684352e-05 max: 0.002858857 velocity magnitude: 0.9530212
yForce = -0.5966409
Y= 6.954991e-13
Vy= 2.165845e-07
Time = 2e-05

GAMGPCG:  Solving for cellDisplacementx, Initial residual = 0, Final residual = 0, No Iterations 0
GAMGPCG:  Solving for cellDisplacementy, Initial residual = 1, Final residual = 1.396159e-09, No Iterations 1
GAMGPCG:  Solving for cellDisplacementz, Initial residual = 0, Final residual = 0, No Iterations 0
volume continuity errors : volume = 4.535015, max error = 1.185319e-08, sum local = 6.283676e-15, global = 3.794852e-18
smoothSolver:  Solving for Ux, Initial residual = 0.05066749, Final residual = 5.020369e-08, No Iterations 1
smoothSolver:  Solving for Uy, Initial residual = 0.01319858, Final residual = 8.927021e-08, No Iterations 1
smoothSolver:  Solving for Uz, Initial residual = 0.9149266, Final residual = 1.796273e-06, No Iterations 1
GPU: 114 iters: 2.429984 s: 68.79797 GB/s
SGPUPCG:  Solving for p, Initial residual = 0.2265799, Final residual = 0.002224905, No Iterations 114
GPU: 422 iters: 8.827388 s: 70.10589 GB/s
SGPUPCG:  Solving for p, Initial residual = 0.01252791, Final residual = 0.000123981, No Iterations 422
time step continuity errors : sum local = 3.344727e-11, global = -3.513184e-12, cumulative = 1.51858e-11
Moving mesh time step continuity errors : sum local = 3.344727e-11, global = -3.513184e-12, cumulative = 1.167262e-11
GPU: 625 iters: 13.02745 s: 70.35498 GB/s
SGPUPCG:  Solving for p, Initial residual = 0.004239285, Final residual = 4.188182e-05, No Iterations 625
GPU: 863 iters: 17.98182 s: 70.38035 GB/s
SGPUPCG:  Solving for p, Initial residual = 0.001800991, Final residual = 9.76304e-08, No Iterations 863
time step continuity errors : sum local = 2.618163e-14, global = 8.086487e-17, cumulative = 1.16727e-11
Moving mesh time step continuity errors : sum local = 2.618163e-14, global = 8.086487e-17, cumulative = 1.167278e-11
smoothSolver:  Solving for k, Initial residual = 0.002273123, Final residual = 8.911631e-10, No Iterations 1
ExecutionTime = 483.74 s  ClockTime = 487 s

Courant Number mean: 7.684408e-05 max: 0.002856742 velocity magnitude: 0.9523163
yForce = -0.09448357
Y= 1.632549e-12
Vy= 1.582355e-07
Time = 2.5e-05

GAMGPCG:  Solving for cellDisplacementx, Initial residual = 0, Final residual = 0, No Iterations 0
GAMGPCG:  Solving for cellDisplacementy, Initial residual = 0.5596701, Final residual = 1.607949e-09, No Iterations 1
GAMGPCG:  Solving for cellDisplacementz, Initial residual = 0, Final residual = 0, No Iterations 0
volume continuity errors : volume = 4.535015, max error = 1.226562e-08, sum local = 6.481824e-15, global = 1.882091e-18
smoothSolver:  Solving for Ux, Initial residual = 0.0270726, Final residual = 1.788453e-08, No Iterations 1
smoothSolver:  Solving for Uy, Initial residual = 0.004555695, Final residual = 3.135384e-08, No Iterations 1
smoothSolver:  Solving for Uz, Initial residual = 0.7361162, Final residual = 1.920682e-06, No Iterations 1
GPU: 35 iters: 0.7877803 s: 65.15341 GB/s
SGPUPCG:  Solving for p, Initial residual = 0.1533823, Final residual = 0.001478371, No Iterations 35
GPU: 481 iters: 10.04018 s: 70.2551 GB/s
SGPUPCG:  Solving for p, Initial residual = 0.003911298, Final residual = 3.89247e-05, No Iterations 481
time step continuity errors : sum local = 9.255756e-12, global = 8.497646e-13, cumulative = 1.252254e-11
Moving mesh time step continuity errors : sum local = 9.255756e-12, global = 8.497646e-13, cumulative = 1.337231e-11
GPU: 635 iters: 13.22781 s: 70.39796 GB/s
SGPUPCG:  Solving for p, Initial residual = 0.001010708, Final residual = 9.962798e-06, No Iterations 635
GPU: 814 iters: 16.95134 s: 70.41976 GB/s
SGPUPCG:  Solving for p, Initial residual = 0.0003983376, Final residual = 9.944942e-08, No Iterations 814
time step continuity errors : sum local = 2.356842e-14, global = -4.925588e-17, cumulative = 1.337226e-11
Moving mesh time step continuity errors : sum local = 2.356842e-14, global = -4.925588e-17, cumulative = 1.337221e-11
smoothSolver:  Solving for k, Initial residual = 0.001554791, Final residual = 6.189781e-10, No Iterations 1
ExecutionTime = 571.46 s  ClockTime = 575 s

Courant Number mean: 7.684421e-05 max: 0.002854608 velocity magnitude: 0.9516049
yForce = 0.2335915
Y= 2.784364e-12
Vy= 3.024906e-07
Time = 3e-05

GAMGPCG:  Solving for cellDisplacementx, Initial residual = 0, Final residual = 0, No Iterations 0
GAMGPCG:  Solving for cellDisplacementy, Initial residual = 0.4863919, Final residual = 6.224709e-10, No Iterations 1
GAMGPCG:  Solving for cellDisplacementz, Initial residual = 0, Final residual = 0, No Iterations 0
volume continuity errors : volume = 4.535015, max error = 9.82603e-09, sum local = 6.591633e-15, global = 2.486e-19
smoothSolver:  Solving for Ux, Initial residual = 0.01761465, Final residual = 8.841912e-09, No Iterations 1
smoothSolver:  Solving for Uy, Initial residual = 0.001237646, Final residual = 1.695756e-08, No Iterations 1
smoothSolver:  Solving for Uz, Initial residual = 0.268653, Final residual = 1.600739e-06, No Iterations 1
GPU: 5 iters: 0.151282 s: 48.46822 GB/s
SGPUPCG:  Solving for p, Initial residual = 0.1088627, Final residual = 0.0008523281, No Iterations 5
GPU: 179 iters: 3.766648 s: 69.69028 GB/s
SGPUPCG:  Solving for p, Initial residual = 0.001575515, Final residual = 1.563703e-05, No Iterations 179
time step continuity errors : sum local = 3.354645e-12, global = -1.176651e-16, cumulative = 1.337209e-11
Moving mesh time step continuity errors : sum local = 3.354645e-12, global = -1.176651e-16, cumulative = 1.337197e-11
GPU: 36 iters: 0.8008811 s: 65.91871 GB/s
SGPUPCG:  Solving for p, Initial residual = 0.0002998884, Final residual = 9.689153e-06, No Iterations 36
GPU: 789 iters: 16.4142 s: 70.49064 GB/s
SGPUPCG:  Solving for p, Initial residual = 0.0001178989, Final residual = 9.985765e-08, No Iterations 789
time step continuity errors : sum local = 2.141352e-14, global = -1.153896e-16, cumulative = 1.337186e-11
Moving mesh time step continuity errors : sum local = 2.141352e-14, global = -1.153896e-16, cumulative = 1.337174e-11
smoothSolver:  Solving for k, Initial residual = 0.001156911, Final residual = 4.665121e-10, No Iterations 1
ExecutionTime = 639.36 s  ClockTime = 644 s

Courant Number mean: 7.684431e-05 max: 0.002852247 velocity magnitude: 0.9508176
yForce = -0.1219009
Y= 4.108615e-12
Vy= 2.272098e-07
Time = 3.5e-05

GAMGPCG:  Solving for cellDisplacementx, Initial residual = 0, Final residual = 0, No Iterations 0
GAMGPCG:  Solving for cellDisplacementy, Initial residual = 0.3891401, Final residual = 6.273968e-10, No Iterations 1
GAMGPCG:  Solving for cellDisplacementz, Initial residual = 0, Final residual = 0, No Iterations 0
volume continuity errors : volume = 4.535015, max error = 1.064125e-08, sum local = 6.635738e-15, global = -3.184604e-19
smoothSolver:  Solving for Ux, Initial residual = 0.01352744, Final residual = 6.756769e-09, No Iterations 1
smoothSolver:  Solving for Uy, Initial residual = 0.0009592052, Final residual = 1.255595e-08, No Iterations 1
smoothSolver:  Solving for Uz, Initial residual = 0.1935914, Final residual = 1.298333e-06, No Iterations 1
GPU: 3 iters: 0.1100116 s: 39.99052 GB/s
SGPUPCG:  Solving for p, Initial residual = 0.09114931, Final residual = 0.0007130781, No Iterations 3
GPU: 135 iters: 2.862372 s: 69.16429 GB/s
SGPUPCG:  Solving for p, Initial residual = 0.0008944964, Final residual = 9.954189e-06, No Iterations 135
time step continuity errors : sum local = 1.961101e-12, global = 4.563739e-17, cumulative = 1.337179e-11
Moving mesh time step continuity errors : sum local = 1.961101e-12, global = 4.563739e-17, cumulative = 1.337183e-11
GPU: 35 iters: 0.7883454 s: 65.10671 GB/s
SGPUPCG:  Solving for p, Initial residual = 9.216562e-05, Final residual = 9.683885e-06, No Iterations 35
GPU: 774 iters: 16.13086 s: 70.36515 GB/s
SGPUPCG:  Solving for p, Initial residual = 3.315182e-05, Final residual = 9.903454e-08, No Iterations 774
time step continuity errors : sum local = 1.950574e-14, global = 2.034619e-17, cumulative = 1.337185e-11
Moving mesh time step continuity errors : sum local = 1.950574e-14, global = 2.034619e-17, cumulative = 1.337187e-11
smoothSolver:  Solving for k, Initial residual = 0.000909741, Final residual = 3.836198e-10, No Iterations 1
ExecutionTime = 707.39 s  ClockTime = 712 s

Courant Number mean: 7.684436e-05 max: 0.002849501 velocity magnitude: 0.9499024
yForce = -0.003156924
Y= 5.239789e-12
Vy= 2.252599e-07
Time = 4e-05

GAMGPCG:  Solving for cellDisplacementx, Initial residual = 0, Final residual = 0, No Iterations 0
GAMGPCG:  Solving for cellDisplacementy, Initial residual = 0.2798505, Final residual = 4.366778e-10, No Iterations 1
GAMGPCG:  Solving for cellDisplacementz, Initial residual = 0, Final residual = 0, No Iterations 0
volume continuity errors : volume = 4.535015, max error = 1.0433e-08, sum local = 6.685914e-15, global = 1.397675e-18
smoothSolver:  Solving for Ux, Initial residual = 0.01095196, Final residual = 5.434565e-09, No Iterations 1
smoothSolver:  Solving for Uy, Initial residual = 0.0008076011, Final residual = 9.989493e-09, No Iterations 1
smoothSolver:  Solving for Uz, Initial residual = 0.1783863, Final residual = 1.232373e-06, No Iterations 1
GPU: 3 iters: 0.1190818 s: 36.94452 GB/s
SGPUPCG:  Solving for p, Initial residual = 0.07497268, Final residual = 0.0003261864, No Iterations 3
GPU: 53 iters: 1.148512 s: 67.67285 GB/s
SGPUPCG:  Solving for p, Initial residual = 0.0004719754, Final residual = 9.726419e-06, No Iterations 53
time step continuity errors : sum local = 1.780068e-12, global = -3.798635e-17, cumulative = 1.337184e-11
Moving mesh time step continuity errors : sum local = 1.780068e-12, global = -3.798635e-17, cumulative = 1.33718e-11
GPU: 6 iters: 0.170854 s: 51.49919 GB/s
SGPUPCG:  Solving for p, Initial residual = 3.896014e-05, Final residual = 9.027031e-06, No Iterations 6
GPU: 737 iters: 15.34266 s: 70.44351 GB/s
SGPUPCG:  Solving for p, Initial residual = 1.512988e-05, Final residual = 9.918664e-08, No Iterations 737
time step continuity errors : sum local = 1.815065e-14, global = -1.790875e-16, cumulative = 1.337162e-11
Moving mesh time step continuity errors : sum local = 1.815065e-14, global = -1.790875e-16, cumulative = 1.337144e-11
smoothSolver:  Solving for k, Initial residual = 0.0007436917, Final residual = 3.250384e-10, No Iterations 1
ExecutionTime = 771.79 s  ClockTime = 776 s

Courant Number mean: 7.684438e-05 max: 0.002846381 velocity magnitude: 0.9488623
yForce = 0.04227269
Y= 6.431352e-12
Vy= 2.513652e-07
Time = 4.5e-05

GAMGPCG:  Solving for cellDisplacementx, Initial residual = 0, Final residual = 0, No Iterations 0
GAMGPCG:  Solving for cellDisplacementy, Initial residual = 0.2460323, Final residual = 3.367156e-10, No Iterations 1
GAMGPCG:  Solving for cellDisplacementz, Initial residual = 0, Final residual = 0, No Iterations 0
volume continuity errors : volume = 4.535015, max error = 8.935295e-09, sum local = 6.70346e-15, global = 5.361603e-18
smoothSolver:  Solving for Ux, Initial residual = 0.009356418, Final residual = 4.558707e-09, No Iterations 1
smoothSolver:  Solving for Uy, Initial residual = 0.0006791193, Final residual = 8.215649e-09, No Iterations 1
smoothSolver:  Solving for Uz, Initial residual = 0.1606356, Final residual = 1.055184e-06, No Iterations 1
GPU: 3 iters: 0.1056499 s: 41.64151 GB/s
SGPUPCG:  Solving for p, Initial residual = 0.06276941, Final residual = 0.0002642843, No Iterations 3
GPU: 24 iters: 0.5476835 s: 64.26223 GB/s
SGPUPCG:  Solving for p, Initial residual = 0.0003714745, Final residual = 9.476059e-06, No Iterations 24
time step continuity errors : sum local = 1.625163e-12, global = -3.491578e-16, cumulative = 1.337109e-11
Moving mesh time step continuity errors : sum local = 1.625163e-12, global = -3.491578e-16, cumulative = 1.337074e-11
GPU: 1 iters: 0.07731712 s: 18.967 GB/s
SGPUPCG:  Solving for p, Initial residual = 2.500498e-05, Final residual = 9.567082e-06, No Iterations 1
GPU: 504 iters: 10.49719 s: 70.40957 GB/s
SGPUPCG:  Solving for p, Initial residual = 1.071902e-05, Final residual = 9.985991e-08, No Iterations 504
time step continuity errors : sum local = 1.712522e-14, global = 1.687685e-15, cumulative = 1.337243e-11
Moving mesh time step continuity errors : sum local = 1.712522e-14, global = 1.687685e-15, cumulative = 1.337412e-11
smoothSolver:  Solving for k, Initial residual = 0.0006255961, Final residual = 2.837578e-10, No Iterations 1
ExecutionTime = 830.72 s  ClockTime = 836 s

Courant Number mean: 7.684437e-05 max: 0.00284288 velocity magnitude: 0.9482452
yForce = -0.02451527
Y= 7.650328e-12
Vy= 2.362253e-07
Time = 5e-05

GAMGPCG:  Solving for cellDisplacementx, Initial residual = 0, Final residual = 0, No Iterations 0
GAMGPCG:  Solving for cellDisplacementy, Initial residual = 0.2153586, Final residual = 3.058835e-10, No Iterations 1
GAMGPCG:  Solving for cellDisplacementz, Initial residual = 0, Final residual = 0, No Iterations 0
volume continuity errors : volume = 4.535015, max error = 1.052963e-08, sum local = 6.720809e-15, global = 2.386083e-18
smoothSolver:  Solving for Ux, Initial residual = 0.008276637, Final residual = 3.93134e-09, No Iterations 1
smoothSolver:  Solving for Uy, Initial residual = 0.0005943326, Final residual = 6.911592e-09, No Iterations 1
smoothSolver:  Solving for Uz, Initial residual = 0.1133014, Final residual = 7.338686e-07, No Iterations 1
GPU: 3 iters: 0.1210328 s: 36.34899 GB/s
SGPUPCG:  Solving for p, Initial residual = 0.05636348, Final residual = 0.000222587, No Iterations 3
GPU: 19 iters: 0.4489406 s: 62.06389 GB/s
SGPUPCG:  Solving for p, Initial residual = 0.0003066726, Final residual = 9.637932e-06, No Iterations 19
time step continuity errors : sum local = 1.55962e-12, global = 4.275182e-15, cumulative = 1.337839e-11
Moving mesh time step continuity errors : sum local = 1.55962e-12, global = 4.275182e-15, cumulative = 1.338267e-11
GPU: 1 iters: 0.07902448 s: 18.55721 GB/s
SGPUPCG:  Solving for p, Initial residual = 2.075745e-05, Final residual = 9.002966e-06, No Iterations 1
GPU: 724 iters: 15.08689 s: 70.37414 GB/s
SGPUPCG:  Solving for p, Initial residual = 9.644189e-06, Final residual = 9.799625e-08, No Iterations 724
time step continuity errors : sum local = 1.58574e-14, global = -1.532328e-16, cumulative = 1.338251e-11
Moving mesh time step continuity errors : sum local = 1.58574e-14, global = -1.532328e-16, cumulative = 1.338236e-11
smoothSolver:  Solving for k, Initial residual = 0.0005378835, Final residual = 2.535516e-10, No Iterations 1
ExecutionTime = 895.24 s  ClockTime = 900 s

yForce = 0.001742744
Y= 8.834144e-12
Vy= 2.373012e-07
End

Finalising parallel run
