 Data for JOB [7556,1] offset 0

 ========================   JOB MAP   ========================

 Data for node: ivb106	Num slots: 4	Max slots: 0	Num procs: 4
 	Process OMPI jobid: [7556,1] App: 0 Process rank: 0
 	Process OMPI jobid: [7556,1] App: 0 Process rank: 1
 	Process OMPI jobid: [7556,1] App: 0 Process rank: 2
 	Process OMPI jobid: [7556,1] App: 0 Process rank: 3

 =============================================================
[ivb106:38422] MCW rank 2 bound to socket 0[core 2[hwt 0]]: [././B/././././././.][./././././././././.]
[ivb106:38422] MCW rank 3 bound to socket 0[core 3[hwt 0]]: [./././B/./././././.][./././././././././.]
[ivb106:38422] MCW rank 0 bound to socket 0[core 0[hwt 0]]: [B/././././././././.][./././././././././.]
[ivb106:38422] MCW rank 1 bound to socket 0[core 1[hwt 0]]: [./B/./././././././.][./././././././././.]
/*---------------------------------------------------------------------------*\
| =========                 |                                                 |
| \\      /  F ield         | foam-extend: Open Source CFD                    |
|  \\    /   O peration     | Version:     3.1                                |
|   \\  /    A nd           | Web:         http://www.extend-project.de       |
|    \\/     M anipulation  |                                                 |
\*---------------------------------------------------------------------------*/
Build    : 3.1-e2da948002a2
Exec     : interFoam -parallel
Date     : May 19 2016
Time     : 20:01:41
Host     : ivb106
PID      : 38464
CtrlDict : /home-2/vplatonov/foam/foam-extend-3.1/etc/controlDict
Case     : /home/vplatonov/tests/rt12mln
nProcs   : 4
Slaves : 
3
(
ivb106.38454
ivb106.38455
ivb106.38461
)

Pstream initialized with:
    floatTransfer     : 0
    nProcsSimpleSum   : 0
    commsType         : blocking
SigFpe   : Enabling floating point exception trapping (FOAM_SIGFPE).

// * * * * * * * * * * * * * * * * * * * * * * * * * * * * * * * * * * * * * //
Create time

Create mesh for time = 0


Reading g
Reading field pd

Reading field alpha1

Reading field U

Reading/calculating face flux field phi

Reading transportProperties

Selecting incompressible transport model Newtonian
Selecting incompressible transport model Newtonian
Calculating field g.h

Selecting turbulence model type laminar
time step continuity errors : sum local = 0, global = 0, cumulative = 0
Created persistent data with name pcorr
OGPUPCG:  Solving for pcorr, Initial residual = 0, Final residual = 0, No Iterations 0
time step continuity errors : sum local = 0, global = 0, cumulative = 0
Courant Number mean: 0 max: 0 velocity magnitude: 0

Starting time loop

Courant Number mean: 0 max: 0 velocity magnitude: 0
Time = 0.001

MULES: Solving for alpha1
Liquid phase volume fraction = 0.00275421  Min(alpha1) = 0  Max(alpha1) = 1
MULES: Solving for alpha1
Liquid phase volume fraction = 0.00275421  Min(alpha1) = 0  Max(alpha1) = 1
Created persistent data with name pd
Computing AINV with droptol 0.02
GPU: 6 iters: 0.128805 s: 62.3254 GB/s
OGPUPCG:  Solving for pd, Initial residual = 1, Final residual = 0.0426057, No Iterations 6
Computing AINV with droptol 0.02
GPU: 185 iters: 3.41027 s: 72.5822 GB/s
OGPUPCG:  Solving for pd, Initial residual = 0.0257361, Final residual = 0.00127522, No Iterations 185
GPU: 909 iters: 16.6543 s: 73.0272 GB/s
OGPUPCG:  Solving for pd, Initial residual = 0.00719078, Final residual = 9.65989e-08, No Iterations 909
time step continuity errors : sum local = 7.18748e-12, global = -2.80688e-24, cumulative = -2.80688e-24
ExecutionTime = 131.4 s  ClockTime = 140 s

Courant Number mean: 4.85427e-06 max: 0.00215706 velocity magnitude: 0.0337041
Time = 0.002

MULES: Solving for alpha1
Liquid phase volume fraction = 0.00275421  Min(alpha1) = 0  Max(alpha1) = 1
MULES: Solving for alpha1
Liquid phase volume fraction = 0.00275421  Min(alpha1) = 0  Max(alpha1) = 1
GPU: 181 iters: 3.3263 s: 72.8053 GB/s
OGPUPCG:  Solving for pd, Initial residual = 0.00367727, Final residual = 0.000181861, No Iterations 181
GPU: 305 iters: 5.58946 s: 73.0091 GB/s
OGPUPCG:  Solving for pd, Initial residual = 0.00220616, Final residual = 0.000109896, No Iterations 305
GPU: 873 iters: 16.0115 s: 72.9507 GB/s
OGPUPCG:  Solving for pd, Initial residual = 0.00198482, Final residual = 9.80165e-08, No Iterations 873
time step continuity errors : sum local = 4.59473e-12, global = -1.00725e-24, cumulative = -3.81413e-24
ExecutionTime = 187.96 s  ClockTime = 197 s

Courant Number mean: 7.65156e-06 max: 0.00313128 velocity magnitude: 0.0489262
Time = 0.003

MULES: Solving for alpha1
Liquid phase volume fraction = 0.00275421  Min(alpha1) = -1.11269e-30  Max(alpha1) = 1
MULES: Solving for alpha1
Liquid phase volume fraction = 0.00275421  Min(alpha1) = -5.36592e-30  Max(alpha1) = 1
GPU: 339 iters: 6.20287 s: 73.1229 GB/s
OGPUPCG:  Solving for pd, Initial residual = 0.00426113, Final residual = 0.000204961, No Iterations 339
GPU: 332 iters: 6.08758 s: 72.9693 GB/s
OGPUPCG:  Solving for pd, Initial residual = 0.00314076, Final residual = 0.000147365, No Iterations 332
GPU: 799 iters: 14.6394 s: 73.0247 GB/s
OGPUPCG:  Solving for pd, Initial residual = 0.00265605, Final residual = 9.92709e-08, No Iterations 799
time step continuity errors : sum local = 4.65258e-12, global = 7.00454e-25, cumulative = -3.11368e-24
ExecutionTime = 246.26 s  ClockTime = 255 s

Courant Number mean: 1.35467e-05 max: 0.00482415 velocity magnitude: 0.0753773
Time = 0.004

MULES: Solving for alpha1
Liquid phase volume fraction = 0.00275421  Min(alpha1) = -5.89554e-30  Max(alpha1) = 1
MULES: Solving for alpha1
Liquid phase volume fraction = 0.00275421  Min(alpha1) = -3.73025e-30  Max(alpha1) = 1
GPU: 332 iters: 6.07495 s: 73.121 GB/s
OGPUPCG:  Solving for pd, Initial residual = 0.00344335, Final residual = 0.000165059, No Iterations 332
GPU: 344 iters: 6.31113 s: 72.9287 GB/s
OGPUPCG:  Solving for pd, Initial residual = 0.0032605, Final residual = 0.000155254, No Iterations 344
GPU: 861 iters: 15.7511 s: 73.1374 GB/s
OGPUPCG:  Solving for pd, Initial residual = 0.00245791, Final residual = 9.96547e-08, No Iterations 861
time step continuity errors : sum local = 4.65266e-12, global = -1.43499e-24, cumulative = -4.54866e-24
ExecutionTime = 306.12 s  ClockTime = 315 s

Courant Number mean: 1.92214e-05 max: 0.00597454 velocity magnitude: 0.0933521
Time = 0.005

MULES: Solving for alpha1
Liquid phase volume fraction = 0.00275421  Min(alpha1) = -9.18353e-30  Max(alpha1) = 1
MULES: Solving for alpha1
Liquid phase volume fraction = 0.00275421  Min(alpha1) = -1.07206e-29  Max(alpha1) = 1
GPU: 340 iters: 6.23382 s: 72.9746 GB/s
OGPUPCG:  Solving for pd, Initial residual = 0.00216669, Final residual = 0.000105783, No Iterations 340
GPU: 340 iters: 6.24643 s: 72.8272 GB/s
OGPUPCG:  Solving for pd, Initial residual = 0.00181907, Final residual = 8.65809e-05, No Iterations 340
GPU: 855 iters: 15.6201 s: 73.237 GB/s
OGPUPCG:  Solving for pd, Initial residual = 0.00146868, Final residual = 9.838e-08, No Iterations 855
time step continuity errors : sum local = 4.58424e-12, global = 2.45307e-24, cumulative = -2.09559e-24
ExecutionTime = 365.88 s  ClockTime = 375 s

Courant Number mean: 2.43612e-05 max: 0.00683424 velocity magnitude: 0.106785
Time = 0.006

MULES: Solving for alpha1
Liquid phase volume fraction = 0.00275421  Min(alpha1) = -1.53351e-29  Max(alpha1) = 1
MULES: Solving for alpha1
Liquid phase volume fraction = 0.00275421  Min(alpha1) = -3.33486e-29  Max(alpha1) = 1
GPU: 344 iters: 6.31383 s: 72.8975 GB/s
OGPUPCG:  Solving for pd, Initial residual = 0.00226212, Final residual = 0.000109177, No Iterations 344
GPU: 352 iters: 6.44714 s: 73.0504 GB/s
OGPUPCG:  Solving for pd, Initial residual = 0.00120617, Final residual = 5.89393e-05, No Iterations 352
GPU: 831 iters: 15.2566 s: 72.8768 GB/s
OGPUPCG:  Solving for pd, Initial residual = 0.000719543, Final residual = 9.89534e-08, No Iterations 831
time step continuity errors : sum local = 4.59649e-12, global = 1.5559e-24, cumulative = -5.3969e-25
ExecutionTime = 425.63 s  ClockTime = 435 s

Courant Number mean: 2.94768e-05 max: 0.00763739 velocity magnitude: 0.119334
Time = 0.007

MULES: Solving for alpha1
Liquid phase volume fraction = 0.00275421  Min(alpha1) = -3.12535e-29  Max(alpha1) = 1
MULES: Solving for alpha1
Liquid phase volume fraction = 0.00275421  Min(alpha1) = -3.8561e-29  Max(alpha1) = 1
GPU: 343 iters: 6.29883 s: 72.8586 GB/s
OGPUPCG:  Solving for pd, Initial residual = 0.00231549, Final residual = 0.000114592, No Iterations 343
GPU: 355 iters: 6.51199 s: 72.9392 GB/s
OGPUPCG:  Solving for pd, Initial residual = 0.00111969, Final residual = 5.34385e-05, No Iterations 355
GPU: 509 iters: 9.33635 s: 72.9436 GB/s
OGPUPCG:  Solving for pd, Initial residual = 0.000546703, Final residual = 9.93179e-08, No Iterations 509
time step continuity errors : sum local = 4.89575e-12, global = -6.32978e-24, cumulative = -6.86947e-24
ExecutionTime = 479.26 s  ClockTime = 489 s

Courant Number mean: 3.45977e-05 max: 0.00834498 velocity magnitude: 0.13039
Time = 0.008

MULES: Solving for alpha1
Liquid phase volume fraction = 0.00275421  Min(alpha1) = -5.41213e-29  Max(alpha1) = 1
MULES: Solving for alpha1
Liquid phase volume fraction = 0.00275421  Min(alpha1) = -6.29097e-29  Max(alpha1) = 1
GPU: 343 iters: 6.31633 s: 72.6568 GB/s
OGPUPCG:  Solving for pd, Initial residual = 0.00235362, Final residual = 0.000112209, No Iterations 343
GPU: 355 iters: 6.51746 s: 72.8781 GB/s
OGPUPCG:  Solving for pd, Initial residual = 0.00108887, Final residual = 5.41741e-05, No Iterations 355
GPU: 512 iters: 9.40622 s: 72.8285 GB/s
OGPUPCG:  Solving for pd, Initial residual = 0.000460722, Final residual = 9.8061e-08, No Iterations 512
time step continuity errors : sum local = 5.00565e-12, global = -4.27421e-24, cumulative = -1.11437e-23
ExecutionTime = 532.99 s  ClockTime = 543 s

Courant Number mean: 3.97329e-05 max: 0.00904257 velocity magnitude: 0.140304
Time = 0.009

MULES: Solving for alpha1
Liquid phase volume fraction = 0.00275421  Min(alpha1) = -3.07682e-29  Max(alpha1) = 1
MULES: Solving for alpha1
Liquid phase volume fraction = 0.00275421  Min(alpha1) = -4.66668e-29  Max(alpha1) = 1
GPU: 341 iters: 6.274 s: 72.7205 GB/s
OGPUPCG:  Solving for pd, Initial residual = 0.00241362, Final residual = 0.000118599, No Iterations 341
GPU: 356 iters: 6.54252 s: 72.8034 GB/s
OGPUPCG:  Solving for pd, Initial residual = 0.00105134, Final residual = 4.98382e-05, No Iterations 356
GPU: 502 iters: 9.20879 s: 72.937 GB/s
OGPUPCG:  Solving for pd, Initial residual = 0.000376875, Final residual = 9.99078e-08, No Iterations 502
time step continuity errors : sum local = 4.87707e-12, global = -1.40051e-23, cumulative = -2.51488e-23
ExecutionTime = 586.37 s  ClockTime = 596 s

Courant Number mean: 4.48873e-05 max: 0.00972324 velocity magnitude: 0.149309
Time = 0.01

MULES: Solving for alpha1
Liquid phase volume fraction = 0.00275421  Min(alpha1) = -4.35581e-29  Max(alpha1) = 1
MULES: Solving for alpha1
Liquid phase volume fraction = 0.00275421  Min(alpha1) = -3.39811e-29  Max(alpha1) = 1
GPU: 339 iters: 6.23875 s: 72.7025 GB/s
OGPUPCG:  Solving for pd, Initial residual = 0.00257853, Final residual = 0.000128793, No Iterations 339
GPU: 356 iters: 6.54342 s: 72.7934 GB/s
OGPUPCG:  Solving for pd, Initial residual = 0.00104378, Final residual = 4.83544e-05, No Iterations 356
GPU: 501 iters: 9.19475 s: 72.9028 GB/s
OGPUPCG:  Solving for pd, Initial residual = 0.000328697, Final residual = 9.93374e-08, No Iterations 501
time step continuity errors : sum local = 4.57394e-12, global = -3.65816e-24, cumulative = -2.8807e-23
ExecutionTime = 640.07 s  ClockTime = 650 s

End

Finalising parallel run
