 Data for JOB [15505,1] offset 0

 ========================   JOB MAP   ========================

 Data for node: ivb108	Num slots: 3	Max slots: 0	Num procs: 3
 	Process OMPI jobid: [15505,1] App: 0 Process rank: 0
 	Process OMPI jobid: [15505,1] App: 0 Process rank: 1
 	Process OMPI jobid: [15505,1] App: 0 Process rank: 2

 Data for node: ivb109	Num slots: 3	Max slots: 0	Num procs: 3
 	Process OMPI jobid: [15505,1] App: 0 Process rank: 3
 	Process OMPI jobid: [15505,1] App: 0 Process rank: 4
 	Process OMPI jobid: [15505,1] App: 0 Process rank: 5

 =============================================================
[ivb108:03732] MCW rank 2 bound to socket 0[core 2[hwt 0]]: [././B/././././././.][./././././././././.]
[ivb108:03732] MCW rank 0 bound to socket 0[core 0[hwt 0]]: [B/././././././././.][./././././././././.]
[ivb108:03732] MCW rank 1 bound to socket 0[core 1[hwt 0]]: [./B/./././././././.][./././././././././.]
[ivb109:27837] MCW rank 3 bound to socket 0[core 0[hwt 0]]: [B/././././././././.][./././././././././.]
[ivb109:27837] MCW rank 4 bound to socket 0[core 1[hwt 0]]: [./B/./././././././.][./././././././././.]
[ivb109:27837] MCW rank 5 bound to socket 0[core 2[hwt 0]]: [././B/././././././.][./././././././././.]
0
2
1
1
2
0
/*---------------------------------------------------------------------------*\
| =========                 |                                                 |
| \\      /  F ield         | foam-extend: Open Source CFD                    |
|  \\    /   O peration     | Version:     3.1                                |
|   \\  /    A nd           | Web:         http://www.extend-project.de       |
|    \\/     M anipulation  |                                                 |
\*---------------------------------------------------------------------------*/
Build    : 3.1-e2da948002a2
Exec     : pimpleDyMFoam -parallel
Date     : May 26 2016
Time     : 16:10:48
Host     : ivb108
PID      : 3768
CtrlDict : /home-2/vplatonov/foam/foam-extend-3.1/etc/controlDict
Case     : /home/vplatonov/tests/3D-mesh1-of3.1
nProcs   : 6
Slaves : 
5
(
ivb108.3772
ivb108.3769
ivb109.27871
ivb109.27862
ivb109.27866
)

Pstream initialized with:
    floatTransfer     : 0
    nProcsSimpleSum   : 0
    commsType         : blocking
SigFpe   : Enabling floating point exception trapping (FOAM_SIGFPE).

// * * * * * * * * * * * * * * * * * * * * * * * * * * * * * * * * * * * * * //
Create time

Create dynamic mesh for time = 0

Selecting dynamicFvMesh dynamicMotionSolverFvMesh
Selecting motion solver: displacementLaplacian
Selecting motion diffusion: quadratic
Selecting motion diffusion: inverseDistance
Reading field p

Reading field U

Reading/calculating face flux field phi

Selecting incompressible transport model Newtonian
Selecting turbulence model type LESModel
Selecting LES turbulence model oneEqEddy
oneEqEddyCoeffs
{
    ce              1.048;
    ck              0.094;
}

Reading field rAU if present


Starting time loop

Courant Number mean: 0 max: 0.0007592825 velocity magnitude: 0.4779
Reading old state
Before setting displacements
GAMGPCG:  Solving for cellDisplacementx, Initial residual = 0, Final residual = 0, No Iterations 0
GAMGPCG:  Solving for cellDisplacementy, Initial residual = 0, Final residual = 0, No Iterations 0
GAMGPCG:  Solving for cellDisplacementz, Initial residual = 0, Final residual = 0, No Iterations 0
Time = 5e-06

GAMGPCG:  Solving for cellDisplacementx, Initial residual = 0, Final residual = 0, No Iterations 0
GAMGPCG:  Solving for cellDisplacementy, Initial residual = 0, Final residual = 0, No Iterations 0
GAMGPCG:  Solving for cellDisplacementz, Initial residual = 0, Final residual = 0, No Iterations 0
volume continuity errors : volume = 4.535015, max error = 0, sum local = 0, global = 0
smoothSolver:  Solving for Ux, Initial residual = 1, Final residual = 2.285051e-08, No Iterations 1
smoothSolver:  Solving for Uy, Initial residual = 1, Final residual = 2.172388e-08, No Iterations 1
smoothSolver:  Solving for Uz, Initial residual = 0.9999962, Final residual = 4.2334e-08, No Iterations 1
Created persistent data with name p
Computing AINV with droptol 0.02
GPU: 566 iters: 19.38847 s: 30.08534 GB/s
Total exec time 19.38847
 Total comm time 0.003534592Pre time 0 Post time 0.003534592
SGPUBICGS:  Solving for p, Initial residual = 1, Final residual = 0.007306605, No Iterations 566
Computing AINV with droptol 0.02
GPU: 92 iters: 3.057517 s: 31.00994 GB/s
Total exec time 22.44599
 Total comm time 0.008781216Pre time 0 Post time 0.008781216
SGPUBICGS:  Solving for p, Initial residual = 0.0004638092, Final residual = 9.992992e-06, No Iterations 92
time step continuity errors : sum local = 2.249349e-09, global = -4.507218e-10, cumulative = -4.507218e-10
Moving mesh time step continuity errors : sum local = 2.249349e-09, global = -4.507218e-10, cumulative = -9.014435e-10
GPU: 100 iters: 3.333552 s: 30.9154 GB/s
Total exec time 25.77954
 Total comm time 0.009409568Pre time 0 Post time 0.009409568
SGPUBICGS:  Solving for p, Initial residual = 0.0001101848, Final residual = 7.241337e-06, No Iterations 100
GPU: 363 iters: 12.18392 s: 30.70446 GB/s
Total exec time 37.96347
 Total comm time 0.01725811Pre time 0 Post time 0.01725811
SGPUBICGS:  Solving for p, Initial residual = 4.401476e-05, Final residual = 7.229024e-08, No Iterations 363
time step continuity errors : sum local = 1.628105e-11, global = -2.455814e-12, cumulative = -9.038993e-10
Moving mesh time step continuity errors : sum local = 1.628105e-11, global = -2.455814e-12, cumulative = -9.063551e-10
smoothSolver:  Solving for k, Initial residual = 1, Final residual = 1.262362e-11, No Iterations 2
ExecutionTime = 116.02 s  ClockTime = 118 s

Courant Number mean: 7.682851e-05 max: 0.002864542 velocity magnitude: 0.9549165
yForce = -1.327923
Y= -2.050161e-12
Vy= -8.200638e-07
Time = 1e-05

GAMGPCG:  Solving for cellDisplacementx, Initial residual = 0, Final residual = 0, No Iterations 0
Total solver time is 0
Total solver time is 0
Total solver time is 1
GAMGPCG:  Solving for cellDisplacementy, Initial residual = 1, Final residual = 3.310289e-09, No Iterations 1
GAMGPCG:  Solving for cellDisplacementz, Initial residual = 0, Final residual = 0, No Iterations 0
volume continuity errors : volume = 4.535015, max error = 1.00093e-08, sum local = 6.067163e-15, global = -5.645549e-18
smoothSolver:  Solving for Ux, Initial residual = 0.9975319, Final residual = 4.955118e-07, No Iterations 1
smoothSolver:  Solving for Uy, Initial residual = 0.3333108, Final residual = 1.44934e-06, No Iterations 1
smoothSolver:  Solving for Uz, Initial residual = 0.3304568, Final residual = 3.961744e-07, No Iterations 1
GPU: 487 iters: 16.42399 s: 30.55853 GB/s
Total exec time 54.38746
 Total comm time 0.02030826Pre time 0 Post time 0.02030826
SGPUBICGS:  Solving for p, Initial residual = 0.003644738, Final residual = 3.636739e-05, No Iterations 487
GPU: 186 iters: 6.352217 s: 30.17656 GB/s
Total exec time 60.73967
 Total comm time 0.02147293Pre time 0 Post time 0.02147293
SGPUBICGS:  Solving for p, Initial residual = 0.001408766, Final residual = 1.404255e-05, No Iterations 186
time step continuity errors : sum local = 1.0506e-09, global = 9.01174e-10, cumulative = -5.181179e-12
Moving mesh time step continuity errors : sum local = 1.0506e-09, global = 9.01174e-10, cumulative = 8.959928e-10
GPU: 345 iters: 11.54668 s: 30.79244 GB/s
Total exec time 72.28635
 Total comm time 0.02363075Pre time 0 Post time 0.02363075
SGPUBICGS:  Solving for p, Initial residual = 0.0003143871, Final residual = 4.995401e-06, No Iterations 345
GPU: 618 iters: 20.72128 s: 30.73647 GB/s
Total exec time 93.00763
 Total comm time 0.03028378Pre time 0 Post time 0.03028378
SGPUBICGS:  Solving for p, Initial residual = 0.000113735, Final residual = 8.491692e-08, No Iterations 618
time step continuity errors : sum local = 6.37592e-12, global = -6.36147e-12, cumulative = 8.896313e-10
Moving mesh time step continuity errors : sum local = 6.37592e-12, global = -6.36147e-12, cumulative = 8.832698e-10
smoothSolver:  Solving for k, Initial residual = 0.00878222, Final residual = 4.662637e-09, No Iterations 1
ExecutionTime = 200.91 s  ClockTime = 204 s

Courant Number mean: 7.683223e-05 max: 0.002856988 velocity magnitude: 0.9523983
yForce = 3.025507
Y= -1.47944e-12
Vy= 1.048351e-06
Time = 1.5e-05

GAMGPCG:  Solving for cellDisplacementx, Initial residual = 0, Final residual = 0, No Iterations 0
Total solver time is 0
Total solver time is 0
Total solver time is 1
GAMGPCG:  Solving for cellDisplacementy, Initial residual = 0.527789, Final residual = 2.655147e-09, No Iterations 1
GAMGPCG:  Solving for cellDisplacementz, Initial residual = 0, Final residual = 0, No Iterations 0
volume continuity errors : volume = 4.535015, max error = 1.253432e-08, sum local = 6.565015e-15, global = -9.527226e-19
smoothSolver:  Solving for Ux, Initial residual = 0.9921365, Final residual = 4.935507e-07, No Iterations 1
smoothSolver:  Solving for Uy, Initial residual = 0.1837236, Final residual = 8.663348e-07, No Iterations 1
smoothSolver:  Solving for Uz, Initial residual = 0.7860603, Final residual = 8.992569e-07, No Iterations 1
GPU: 450 iters: 15.10485 s: 30.70281 GB/s
Total exec time 108.1125
 Total comm time 0.04084685Pre time 0 Post time 0.04084685
SGPUBICGS:  Solving for p, Initial residual = 0.0028012, Final residual = 2.583498e-05, No Iterations 450
GPU: 391 iters: 13.08703 s: 30.79057 GB/s
Total exec time 121.1995
 Total comm time 0.05211981Pre time 0 Post time 0.05211981
SGPUBICGS:  Solving for p, Initial residual = 0.04843738, Final residual = 0.0004672238, No Iterations 391
time step continuity errors : sum local = 3.336559e-10, global = -1.159318e-10, cumulative = 7.67338e-10
Moving mesh time step continuity errors : sum local = 3.336559e-10, global = -1.159318e-10, cumulative = 6.514062e-10
GPU: 404 iters: 13.64687 s: 30.50918 GB/s
Total exec time 134.8464
 Total comm time 0.05464358Pre time 0 Post time 0.05464358
SGPUBICGS:  Solving for p, Initial residual = 0.02069756, Final residual = 0.0002058156, No Iterations 404
GPU: 763 iters: 25.76839 s: 30.51542 GB/s
Total exec time 160.6148
 Total comm time 0.05941254Pre time 0 Post time 0.05941254
SGPUBICGS:  Solving for p, Initial residual = 0.007363502, Final residual = 2.28515e-08, No Iterations 763
time step continuity errors : sum local = 7.541658e-15, global = -4.64624e-16, cumulative = 6.514058e-10
Moving mesh time step continuity errors : sum local = 7.541658e-15, global = -4.64624e-16, cumulative = 6.514053e-10
smoothSolver:  Solving for k, Initial residual = 0.003835592, Final residual = 2.146892e-09, No Iterations 1
ExecutionTime = 296.74 s  ClockTime = 300 s

Courant Number mean: 7.683291e-05 max: 0.002858866 velocity magnitude: 0.9530242
yForce = -0.9434193
Y= 2.305779e-12
Vy= 4.657371e-07
Time = 2e-05

GAMGPCG:  Solving for cellDisplacementx, Initial residual = 0, Final residual = 0, No Iterations 0
Total solver time is 0
Total solver time is 0
Total solver time is 1
GAMGPCG:  Solving for cellDisplacementy, Initial residual = 1, Final residual = 3.341017e-09, No Iterations 1
GAMGPCG:  Solving for cellDisplacementz, Initial residual = 0, Final residual = 0, No Iterations 0
volume continuity errors : volume = 4.535015, max error = 9.429766e-09, sum local = 6.655482e-15, global = 4.391411e-18
smoothSolver:  Solving for Ux, Initial residual = 0.05346761, Final residual = 5.180179e-08, No Iterations 1
smoothSolver:  Solving for Uy, Initial residual = 0.01341944, Final residual = 9.332768e-08, No Iterations 1
smoothSolver:  Solving for Uz, Initial residual = 0.9512502, Final residual = 8.47163e-07, No Iterations 1
GPU: 44 iters: 1.47264 s: 30.79201 GB/s
Total exec time 162.0874
 Total comm time 0.05969962Pre time 0 Post time 0.05969962
SGPUBICGS:  Solving for p, Initial residual = 0.226449, Final residual = 0.001966137, No Iterations 44
GPU: 106 iters: 3.610271 s: 30.25855 GB/s
Total exec time 165.6977
 Total comm time 0.06036509Pre time 0 Post time 0.06036509
SGPUBICGS:  Solving for p, Initial residual = 0.01224764, Final residual = 0.0001090355, No Iterations 106
time step continuity errors : sum local = 2.942376e-11, global = 9.092202e-12, cumulative = 6.604975e-10
Moving mesh time step continuity errors : sum local = 2.942376e-11, global = 9.092202e-12, cumulative = 6.695897e-10
GPU: 199 iters: 6.74184 s: 30.41983 GB/s
Total exec time 172.4395
 Total comm time 0.06161142Pre time 0 Post time 0.06161142
SGPUBICGS:  Solving for p, Initial residual = 0.004249548, Final residual = 4.078112e-05, No Iterations 199
GPU: 578 iters: 19.52693 s: 30.50534 GB/s
Total exec time 191.9665
 Total comm time 0.06938125Pre time 0 Post time 0.06938125
SGPUBICGS:  Solving for p, Initial residual = 0.001811743, Final residual = 8.984525e-08, No Iterations 578
time step continuity errors : sum local = 2.41854e-14, global = -3.329198e-15, cumulative = 6.695864e-10
Moving mesh time step continuity errors : sum local = 2.41854e-14, global = -3.329198e-15, cumulative = 6.69583e-10
smoothSolver:  Solving for k, Initial residual = 0.002273346, Final residual = 1.353552e-09, No Iterations 1
ExecutionTime = 357.59 s  ClockTime = 362 s

Courant Number mean: 7.683347e-05 max: 0.002856744 velocity magnitude: 0.9523168
yForce = -0.5647506
Y= 3.762553e-12
Vy= 1.169725e-07
Time = 2.5e-05

GAMGPCG:  Solving for cellDisplacementx, Initial residual = 0, Final residual = 0, No Iterations 0
Total solver time is 0
Total solver time is 0
Total solver time is 1
GAMGPCG:  Solving for cellDisplacementy, Initial residual = 0.4145855, Final residual = 2.219325e-09, No Iterations 1
GAMGPCG:  Solving for cellDisplacementz, Initial residual = 0, Final residual = 0, No Iterations 0
volume continuity errors : volume = 4.535015, max error = 9.708985e-09, sum local = 6.84239e-15, global = 1.968778e-18
smoothSolver:  Solving for Ux, Initial residual = 0.02761534, Final residual = 1.80436e-08, No Iterations 1
smoothSolver:  Solving for Uy, Initial residual = 0.004596881, Final residual = 3.184555e-08, No Iterations 1
smoothSolver:  Solving for Uz, Initial residual = 0.6666568, Final residual = 6.609619e-07, No Iterations 1
GPU: 9 iters: 0.3378899 s: 27.45044 GB/s
Total exec time 192.3043
 Total comm time 0.06944048Pre time 0 Post time 0.06944048
SGPUBICGS:  Solving for p, Initial residual = 0.1533791, Final residual = 0.001469618, No Iterations 9
GPU: 138 iters: 4.663847 s: 30.49418 GB/s
Total exec time 196.9682
 Total comm time 0.07030387Pre time 0 Post time 0.07030387
SGPUBICGS:  Solving for p, Initial residual = 0.003718467, Final residual = 3.559945e-05, No Iterations 138
time step continuity errors : sum local = 8.465088e-12, global = -2.071274e-12, cumulative = 6.675118e-10
Moving mesh time step continuity errors : sum local = 8.465088e-12, global = -2.071274e-12, cumulative = 6.654405e-10
GPU: 156 iters: 5.302463 s: 30.31999 GB/s
Total exec time 202.2707
 Total comm time 0.07127878Pre time 0 Post time 0.07127878
SGPUBICGS:  Solving for p, Initial residual = 0.0009412182, Final residual = 9.249578e-06, No Iterations 156
GPU: 431 iters: 14.60757 s: 30.40756 GB/s
Total exec time 216.8782
 Total comm time 0.07396755Pre time 0 Post time 0.07396755
SGPUBICGS:  Solving for p, Initial residual = 0.0003297324, Final residual = 9.09235e-08, No Iterations 431
time step continuity errors : sum local = 2.1586e-14, global = -1.263327e-14, cumulative = 6.654279e-10
Moving mesh time step continuity errors : sum local = 2.1586e-14, global = -1.263327e-14, cumulative = 6.654152e-10
smoothSolver:  Solving for k, Initial residual = 0.00155491, Final residual = 9.812331e-10, No Iterations 1
ExecutionTime = 412.85 s  ClockTime = 417 s

Courant Number mean: 7.68336e-05 max: 0.002854614 velocity magnitude: 0.9516069
yForce = 0.6074366
Y= 5.285228e-12
Vy= 4.920972e-07
Time = 3e-05

GAMGPCG:  Solving for cellDisplacementx, Initial residual = 0, Final residual = 0, No Iterations 0
Total solver time is 0
Total solver time is 0
Total solver time is 1
GAMGPCG:  Solving for cellDisplacementy, Initial residual = 0.3526413, Final residual = 1.157663e-09, No Iterations 1
GAMGPCG:  Solving for cellDisplacementz, Initial residual = 0, Final residual = 0, No Iterations 0
volume continuity errors : volume = 4.535015, max error = 1.007411e-08, sum local = 6.840098e-15, global = 5.106969e-18
smoothSolver:  Solving for Ux, Initial residual = 0.01762527, Final residual = 8.831642e-09, No Iterations 1
smoothSolver:  Solving for Uy, Initial residual = 0.001243264, Final residual = 1.622819e-08, No Iterations 1
smoothSolver:  Solving for Uz, Initial residual = 0.2225626, Final residual = 1.427091e-06, No Iterations 1
GPU: 3 iters: 0.122877 s: 25.16128 GB/s
Total exec time 217.0011
 Total comm time 0.07398941Pre time 0 Post time 0.07398941
SGPUBICGS:  Solving for p, Initial residual = 0.1088448, Final residual = 0.000702557, No Iterations 3
GPU: 44 iters: 1.550867 s: 29.23884 GB/s
Total exec time 218.552
 Total comm time 0.07426675Pre time 0 Post time 0.07426675
SGPUBICGS:  Solving for p, Initial residual = 0.001329068, Final residual = 1.295012e-05, No Iterations 44
time step continuity errors : sum local = 2.778232e-12, global = -2.570664e-14, cumulative = 6.653895e-10
Moving mesh time step continuity errors : sum local = 2.778232e-12, global = -2.570664e-14, cumulative = 6.653638e-10
GPU: 48 iters: 1.639671 s: 30.16939 GB/s
Total exec time 220.1916
 Total comm time 0.07458045Pre time 0 Post time 0.07458045
SGPUBICGS:  Solving for p, Initial residual = 0.0002646813, Final residual = 9.606852e-06, No Iterations 48
GPU: 453 iters: 15.22984 s: 30.65384 GB/s
Total exec time 235.4215
 Total comm time 0.07741024Pre time 0 Post time 0.07741024
SGPUBICGS:  Solving for p, Initial residual = 0.0001029596, Final residual = 9.743422e-08, No Iterations 453
time step continuity errors : sum local = 2.089494e-14, global = -2.087809e-14, cumulative = 6.653429e-10
Moving mesh time step continuity errors : sum local = 2.089494e-14, global = -2.087809e-14, cumulative = 6.65322e-10
smoothSolver:  Solving for k, Initial residual = 0.00115698, Final residual = 7.629166e-10, No Iterations 1
ExecutionTime = 460.2 s  ClockTime = 465 s

Courant Number mean: 7.683369e-05 max: 0.002852247 velocity magnitude: 0.9508176
yForce = -0.2445916
Y= 7.36809e-12
Vy= 3.410479e-07
Time = 3.5e-05

GAMGPCG:  Solving for cellDisplacementx, Initial residual = 0, Final residual = 0, No Iterations 0
Total solver time is 0
Total solver time is 0
Total solver time is 1
GAMGPCG:  Solving for cellDisplacementy, Initial residual = 0.3580533, Final residual = 1.166397e-09, No Iterations 1
GAMGPCG:  Solving for cellDisplacementz, Initial residual = 0, Final residual = 0, No Iterations 0
volume continuity errors : volume = 4.535015, max error = 8.638576e-09, sum local = 6.838959e-15, global = 1.956289e-18
smoothSolver:  Solving for Ux, Initial residual = 0.01352926, Final residual = 6.940925e-09, No Iterations 1
smoothSolver:  Solving for Uy, Initial residual = 0.0009622758, Final residual = 1.214124e-08, No Iterations 1
smoothSolver:  Solving for Uz, Initial residual = 0.4244243, Final residual = 2.855852e-06, No Iterations 1
GPU: 2 iters: 0.09031738 s: 22.82132 GB/s
Total exec time 235.5118
 Total comm time 0.0774256Pre time 0 Post time 0.0774256
SGPUBICGS:  Solving for p, Initial residual = 0.09114456, Final residual = 0.0003787109, No Iterations 2
GPU: 23 iters: 0.813946 s: 29.12154 GB/s
Total exec time 236.3257
 Total comm time 0.07757129Pre time 0 Post time 0.07757129
SGPUBICGS:  Solving for p, Initial residual = 0.0005609452, Final residual = 9.623663e-06, No Iterations 23
time step continuity errors : sum local = 1.89579e-12, global = -2.847552e-14, cumulative = 6.652936e-10
Moving mesh time step continuity errors : sum local = 1.89579e-12, global = -2.847552e-14, cumulative = 6.652651e-10
GPU: 8 iters: 0.2866176 s: 28.76532 GB/s
Total exec time 236.6124
 Total comm time 0.07762441Pre time 0 Post time 0.07762441
SGPUBICGS:  Solving for p, Initial residual = 8.295749e-05, Final residual = 9.804563e-06, No Iterations 8
GPU: 489 iters: 16.55471 s: 30.44174 GB/s
Total exec time 253.1671
 Total comm time 0.08749411Pre time 0 Post time 0.08749411
SGPUBICGS:  Solving for p, Initial residual = 2.956048e-05, Final residual = 9.443697e-08, No Iterations 489
time step continuity errors : sum local = 1.860073e-14, global = -6.063941e-15, cumulative = 6.65259e-10
Moving mesh time step continuity errors : sum local = 1.860073e-14, global = -6.063941e-15, cumulative = 6.65253e-10
smoothSolver:  Solving for k, Initial residual = 0.0009097857, Final residual = 6.330938e-10, No Iterations 1
ExecutionTime = 507.21 s  ClockTime = 512 s

Courant Number mean: 7.683374e-05 max: 0.002849502 velocity magnitude: 0.9499025
yForce = -0.03067304
Y= 9.025973e-12
Vy= 3.221052e-07
Time = 4e-05

GAMGPCG:  Solving for cellDisplacementx, Initial residual = 0, Final residual = 0, No Iterations 0
Total solver time is 0
Total solver time is 0
Total solver time is 1
GAMGPCG:  Solving for cellDisplacementy, Initial residual = 0.242336, Final residual = 8.525676e-10, No Iterations 1
GAMGPCG:  Solving for cellDisplacementz, Initial residual = 0, Final residual = 0, No Iterations 0
volume continuity errors : volume = 4.535015, max error = 1.229013e-08, sum local = 6.857382e-15, global = -1.471048e-18
smoothSolver:  Solving for Ux, Initial residual = 0.0109579, Final residual = 5.676558e-09, No Iterations 1
smoothSolver:  Solving for Uy, Initial residual = 0.0008055979, Final residual = 9.762365e-09, No Iterations 1
smoothSolver:  Solving for Uz, Initial residual = 0.2897028, Final residual = 2.755675e-06, No Iterations 1
GPU: 2 iters: 0.08613287 s: 23.93003 GB/s
Total exec time 253.2532
 Total comm time 0.08751001Pre time 0 Post time 0.08751001
SGPUBICGS:  Solving for p, Initial residual = 0.0749711, Final residual = 0.0001464287, No Iterations 2
GPU: 9 iters: 0.3534981 s: 26.23841 GB/s
Total exec time 253.6067
 Total comm time 0.09715648Pre time 0 Post time 0.09715648
SGPUBICGS:  Solving for p, Initial residual = 0.0002943612, Final residual = 9.712116e-06, No Iterations 9
time step continuity errors : sum local = 1.777451e-12, global = 1.64205e-14, cumulative = 6.652694e-10
Moving mesh time step continuity errors : sum local = 1.777451e-12, global = 1.64205e-14, cumulative = 6.652858e-10
GPU: 2 iters: 0.09070128 s: 22.72473 GB/s
Total exec time 253.6974
 Total comm time 0.0971721Pre time 0 Post time 0.0971721
SGPUBICGS:  Solving for p, Initial residual = 3.595963e-05, Final residual = 9.98789e-06, No Iterations 2
GPU: 414 iters: 13.88197 s: 30.73486 GB/s
Total exec time 267.5794
 Total comm time 0.09977728Pre time 0 Post time 0.09977728
SGPUBICGS:  Solving for p, Initial residual = 1.571782e-05, Final residual = 9.973211e-08, No Iterations 414
time step continuity errors : sum local = 1.82514e-14, global = 1.823263e-14, cumulative = 6.65304e-10
Moving mesh time step continuity errors : sum local = 1.82514e-14, global = 1.823263e-14, cumulative = 6.653223e-10
smoothSolver:  Solving for k, Initial residual = 0.0007437228, Final residual = 5.397479e-10, No Iterations 1
ExecutionTime = 550.03 s  ClockTime = 555 s

Courant Number mean: 7.683376e-05 max: 0.002846382 velocity magnitude: 0.9488625
yForce = 0.09225608
Y= 1.077893e-11
Vy= 3.790778e-07
Time = 4.5e-05

GAMGPCG:  Solving for cellDisplacementx, Initial residual = 0, Final residual = 0, No Iterations 0
Total solver time is 0
Total solver time is 0
Total solver time is 1
GAMGPCG:  Solving for cellDisplacementy, Initial residual = 0.2199053, Final residual = 7.231657e-10, No Iterations 1
GAMGPCG:  Solving for cellDisplacementz, Initial residual = 0, Final residual = 0, No Iterations 0
volume continuity errors : volume = 4.535015, max error = 1.278575e-08, sum local = 6.854694e-15, global = -1.862091e-18
smoothSolver:  Solving for Ux, Initial residual = 0.009362127, Final residual = 4.835652e-09, No Iterations 1
smoothSolver:  Solving for Uy, Initial residual = 0.0006803122, Final residual = 8.07068e-09, No Iterations 1
smoothSolver:  Solving for Uz, Initial residual = 0.3555923, Final residual = 1.639573e-06, No Iterations 1
GPU: 2 iters: 0.0890839 s: 23.13731 GB/s
Total exec time 267.6685
 Total comm time 0.09979267Pre time 0 Post time 0.09979267
SGPUBICGS:  Solving for p, Initial residual = 0.06276991, Final residual = 0.0001102042, No Iterations 2
GPU: 8 iters: 0.2930981 s: 28.1293 GB/s
Total exec time 267.9616
 Total comm time 0.0998456Pre time 0 Post time 0.0998456
SGPUBICGS:  Solving for p, Initial residual = 0.0002190127, Final residual = 9.287884e-06, No Iterations 8
time step continuity errors : sum local = 1.592916e-12, global = 4.567603e-14, cumulative = 6.65368e-10
Moving mesh time step continuity errors : sum local = 1.592916e-12, global = 4.567603e-14, cumulative = 6.654136e-10
GPU: 2 iters: 0.08867693 s: 23.2435 GB/s
Total exec time 268.0502
 Total comm time 0.09986125Pre time 0 Post time 0.09986125
SGPUBICGS:  Solving for p, Initial residual = 2.333186e-05, Final residual = 9.421757e-06, No Iterations 2
GPU: 456 iters: 15.33547 s: 30.64431 GB/s
Total exec time 283.3857
 Total comm time 0.1090842Pre time 0 Post time 0.1090842
SGPUBICGS:  Solving for p, Initial residual = 1.145103e-05, Final residual = 3.754165e-08, No Iterations 456
time step continuity errors : sum local = 6.438356e-15, global = 2.918276e-16, cumulative = 6.654139e-10
Moving mesh time step continuity errors : sum local = 6.438356e-15, global = 2.918276e-16, cumulative = 6.654142e-10
smoothSolver:  Solving for k, Initial residual = 0.0006256188, Final residual = 4.717859e-10, No Iterations 1
ExecutionTime = 595.14 s  ClockTime = 600 s

Courant Number mean: 7.683376e-05 max: 0.002842881 velocity magnitude: 0.948245
yForce = -0.04507158
Y= 1.260473e-11
Vy= 3.512431e-07
Time = 5e-05

GAMGPCG:  Solving for cellDisplacementx, Initial residual = 0, Final residual = 0, No Iterations 0
Total solver time is 0
Total solver time is 0
Total solver time is 1
GAMGPCG:  Solving for cellDisplacementy, Initial residual = 0.1984205, Final residual = 6.485642e-10, No Iterations 1
GAMGPCG:  Solving for cellDisplacementz, Initial residual = 0, Final residual = 0, No Iterations 0
volume continuity errors : volume = 4.535015, max error = 8.856686e-09, sum local = 6.855143e-15, global = -2.025237e-19
smoothSolver:  Solving for Ux, Initial residual = 0.008282632, Final residual = 4.219418e-09, No Iterations 1
smoothSolver:  Solving for Uy, Initial residual = 0.0005948712, Final residual = 6.845401e-09, No Iterations 1
smoothSolver:  Solving for Uz, Initial residual = 0.2893339, Final residual = 9.142718e-07, No Iterations 1
GPU: 2 iters: 0.08593642 s: 23.98473 GB/s
Total exec time 283.4716
 Total comm time 0.1090998Pre time 0 Post time 0.1090998
SGPUBICGS:  Solving for p, Initial residual = 0.05636564, Final residual = 8.496388e-05, No Iterations 2
GPU: 6 iters: 0.2278569 s: 27.13759 GB/s
Total exec time 283.6995
 Total comm time 0.1091405Pre time 0 Post time 0.1091405
SGPUBICGS:  Solving for p, Initial residual = 0.0001702957, Final residual = 8.849646e-06, No Iterations 6
time step continuity errors : sum local = 1.432062e-12, global = -3.173778e-14, cumulative = 6.653825e-10
Moving mesh time step continuity errors : sum local = 1.432062e-12, global = -3.173778e-14, cumulative = 6.653507e-10
GPU: 1 iters: 0.0569144 s: 18.10756 GB/s
Total exec time 283.7564
 Total comm time 0.10915Pre time 0 Post time 0.10915
SGPUBICGS:  Solving for p, Initial residual = 1.862046e-05, Final residual = 9.349027e-06, No Iterations 1
GPU: 432 iters: 14.38414 s: 30.95151 GB/s
Total exec time 298.1405
 Total comm time 0.1118467Pre time 0 Post time 0.1118467
SGPUBICGS:  Solving for p, Initial residual = 1.037215e-05, Final residual = 9.765249e-08, No Iterations 432
time step continuity errors : sum local = 1.580186e-14, global = -9.335627e-15, cumulative = 6.653414e-10
Moving mesh time step continuity errors : sum local = 1.580186e-14, global = -9.335627e-15, cumulative = 6.653321e-10
smoothSolver:  Solving for k, Initial residual = 0.0005379007, Final residual = 4.204784e-10, No Iterations 1
ExecutionTime = 639 s  ClockTime = 644 s

yForce = 0.002060491
Y= 1.436413e-11
Vy= 3.52515e-07
End

Finalising parallel run
