 Data for JOB [33167,1] offset 0

 ========================   JOB MAP   ========================

 Data for node: ivb106	Num slots: 4	Max slots: 0	Num procs: 4
 	Process OMPI jobid: [33167,1] App: 0 Process rank: 0
 	Process OMPI jobid: [33167,1] App: 0 Process rank: 1
 	Process OMPI jobid: [33167,1] App: 0 Process rank: 2
 	Process OMPI jobid: [33167,1] App: 0 Process rank: 3

 =============================================================
[ivb106:02589] MCW rank 2 bound to socket 0[core 2[hwt 0]]: [././B/././././././.][./././././././././.]
[ivb106:02589] MCW rank 3 bound to socket 0[core 3[hwt 0]]: [./././B/./././././.][./././././././././.]
[ivb106:02589] MCW rank 0 bound to socket 0[core 0[hwt 0]]: [B/././././././././.][./././././././././.]
[ivb106:02589] MCW rank 1 bound to socket 0[core 1[hwt 0]]: [./B/./././././././.][./././././././././.]
0
1
2
3
/*---------------------------------------------------------------------------*\
| =========                 |                                                 |
| \\      /  F ield         | foam-extend: Open Source CFD                    |
|  \\    /   O peration     | Version:     3.1                                |
|   \\  /    A nd           | Web:         http://www.extend-project.de       |
|    \\/     M anipulation  |                                                 |
\*---------------------------------------------------------------------------*/
Build    : 3.1-e2da948002a2
Exec     : interFoam -parallel
Date     : May 21 2016
Time     : 16:26:41
Host     : ivb106
PID      : 2629
CtrlDict : /home-2/vplatonov/foam/foam-extend-3.1/etc/controlDict
Case     : /home/vplatonov/tests/rt12mln
nProcs   : 4
Slaves : 
3
(
ivb106.2623
ivb106.2622
ivb106.2634
)

Pstream initialized with:
    floatTransfer     : 0
    nProcsSimpleSum   : 0
    commsType         : blocking
SigFpe   : Enabling floating point exception trapping (FOAM_SIGFPE).

// * * * * * * * * * * * * * * * * * * * * * * * * * * * * * * * * * * * * * //
Create time

Create mesh for time = 0


Reading g
Reading field pd

Reading field alpha1

Reading field U

Reading/calculating face flux field phi

Reading transportProperties

Selecting incompressible transport model Newtonian
Selecting incompressible transport model Newtonian
Calculating field g.h

Selecting turbulence model type laminar
time step continuity errors : sum local = 0, global = 0, cumulative = 0
[1] Building level 0
Created persistent data with name pcorr
[0] Building level 0
[3] Building level 0
[2] Building level 0
Creating AMGLevel 
[1] Building level 1
[0] Building level 1
[3] Building level 1
[2] Building level 1
Creating AMGLevel 
[1] Building level 2
[0] Building level 2
[2] Building level 2
[3] Building level 2
[1] Building level 3
[2] Building level 3
[3] Building level 3
Creating AMGLevel 
[0] Building level 3
[2] Building level 4
[1] Building level 4
[3] Building level 4
Creating AMGLevel 
[0] Building level 4
[2] Building level 5
[1] Building level 5
[3] Building level 5
Creating AMGLevel 
[0] Building level 5
[2] Building level 6
[1] Building level 6
[3] Building level 6
Creating AMGLevel 
[0] Building level 6
[2] Building level 7
[1] Building level 7
[3] Building level 7
[2] Building level 8
Creating AMGLevel 
[0] Building level 7
[1] Building level 8
[2] Building level 9
[3] Building level 8
[1] Building level 9
[2] Building level 10
[2] Building level 11
Creating AMGLevel 
[0] Building level 8
[1] Building level 10
[2] Building level 12
[3] Building level 9
[2] Building level 13
[1] Building level 11
[2] Building level 14
[1] Building level 12
Creating AMGLevel 
[1] Building level 13
[0] Building level 9
[3] Building level 10
[1] Building level 14
[3] Building level 11
Creating AMGLevel 
[0] Building level 10
[3] Building level 12
[3] Building level 13
[3] Building level 14
Creating AMGLevel 
[0] Building level 11
Creating AMGLevel 
[0] Building level 12
Creating AMGLevel 
[0] Building level 13
Creating AMGLevel 
[0] Building level 14
Creating AMGLevel 
14 Level construction complete
PCGAMG:  Solving for pcorr, Initial residual = 0, Final residual = 0, No Iterations 0
time step continuity errors : sum local = 0, global = 0, cumulative = 0
Courant Number mean: 0 max: 0 velocity magnitude: 0

Starting time loop

Courant Number mean: 0 max: 0 velocity magnitude: 0
Time = 0.001

MULES: Solving for alpha1
Liquid phase volume fraction = 0.00275421  Min(alpha1) = 0  Max(alpha1) = 1
MULES: Solving for alpha1
Liquid phase volume fraction = 0.00275421  Min(alpha1) = 0  Max(alpha1) = 1
[1] Building level 0
Created persistent data with name pd
[0] Building level 0
[3] Building level 0
[2] Building level 0
Creating AMGLevel 
[1] Building level 1
[0] Building level 1
[2] Building level 1
[3] Building level 1
Creating AMGLevel 
[0] Building level 2
[1] Building level 2
[2] Building level 2
[3] Building level 2
Creating AMGLevel 
[0] Building level 3
[1] Building level 3
[3] Building level 3
[2] Building level 3
Creating AMGLevel 
[0] Building level 4
[2] Building level 4
[1] Building level 4
[3] Building level 4
Creating AMGLevel 
[0] Building level 5
[2] Building level 5
[1] Building level 5
[3] Building level 5
Creating AMGLevel 
[0] Building level 6
[2] Building level 6
[1] Building level 6
[3] Building level 6
Creating AMGLevel 
[0] Building level 7
[2] Building level 7
[1] Building level 7
Creating AMGLevel 
[0] Building level 8
[3] Building level 7
[2] Building level 8
Creating AMGLevel 
[0] Building level 9
[1] Building level 8
Creating AMGLevel 
[0] Building level 10
[3] Building level 8
[2] Building level 9
Creating AMGLevel 
[0] Building level 11
[1] Building level 9
Creating AMGLevel 
[0] Building level 12
Creating AMGLevel 
[0] Building level 13
Creating AMGLevel 
[0] Building level 14
Creating AMGLevel 
14 Level construction complete
[2] Building level 10
[3] Building level 9
[1] Building level 10
[2] Building level 11
[1] Building level 11
[2] Building level 12
[3] Building level 10
[1] Building level 12
[2] Building level 13
[1] Building level 13
[2] Building level 14
[1] Building level 14
[3] Building level 11
[3] Building level 12
[3] Building level 13
[3] Building level 14
GPU: 1 iters: 0.517418 s: 1.26481 GB/s
PCGAMG:  Solving for pd, Initial residual = 1, Final residual = 0.0347811, No Iterations 1
slurmstepd: *** JOB 6978 ON ivb106 CANCELLED AT 2016-05-21T16:43:45 DUE TO TIME LIMIT ***
