 Data for JOB [34812,1] offset 0

 ========================   JOB MAP   ========================

 Data for node: ivb106	Num slots: 4	Max slots: 0	Num procs: 4
 	Process OMPI jobid: [34812,1] App: 0 Process rank: 0
 	Process OMPI jobid: [34812,1] App: 0 Process rank: 1
 	Process OMPI jobid: [34812,1] App: 0 Process rank: 2
 	Process OMPI jobid: [34812,1] App: 0 Process rank: 3

 =============================================================
[ivb106:03182] MCW rank 2 bound to socket 0[core 2[hwt 0]]: [././B/././././././.][./././././././././.]
[ivb106:03182] MCW rank 3 bound to socket 0[core 3[hwt 0]]: [./././B/./././././.][./././././././././.]
[ivb106:03182] MCW rank 0 bound to socket 0[core 0[hwt 0]]: [B/././././././././.][./././././././././.]
[ivb106:03182] MCW rank 1 bound to socket 0[core 1[hwt 0]]: [./B/./././././././.][./././././././././.]
/*---------------------------------------------------------------------------*\
| =========                 |                                                 |
| \\      /  F ield         | foam-extend: Open Source CFD                    |
|  \\    /   O peration     | Version:     3.1                                |
|   \\  /    A nd           | Web:         http://www.extend-project.de       |
|    \\/     M anipulation  |                                                 |
\*---------------------------------------------------------------------------*/
Build    : 3.1-e2da948002a2
Exec     : interFoam -parallel
Date     : May 21 2016
Time     : 16:44:10
Host     : ivb106
PID      : 3221
CtrlDict : /home-2/vplatonov/foam/foam-extend-3.1/etc/controlDict
Case     : /home/vplatonov/tests/rt12mln
nProcs   : 4
Slaves : 
3
(
ivb106.3229
ivb106.3223
ivb106.3232
)

Pstream initialized with:
    floatTransfer     : 0
    nProcsSimpleSum   : 0
    commsType         : blocking
SigFpe   : Enabling floating point exception trapping (FOAM_SIGFPE).

// * * * * * * * * * * * * * * * * * * * * * * * * * * * * * * * * * * * * * //
Create time

Create mesh for time = 0


Reading g
Reading field pd

Reading field alpha1

Reading field U

Reading/calculating face flux field phi

Reading transportProperties

Selecting incompressible transport model Newtonian
Selecting incompressible transport model Newtonian
Calculating field g.h

Selecting turbulence model type laminar
time step continuity errors : sum local = 0, global = 0, cumulative = 0
[3] Building level 0
[1] Building level 0
[2] Building level 0
Created persistent data with name pcorr
[0] Building level 0
[1] Building level 1
[3] Building level 1
[2] Building level 1
Creating AMGLevel 
[0] Building level 1
[2] Building level 2
[1] Building level 2
[3] Building level 2
Creating AMGLevel 
[0] Building level 2
[2] Building level 3
[1] Building level 3
[3] Building level 3
Creating AMGLevel 
[0] Building level 3
[2] Building level 4
[1] Building level 4
[3] Building level 4
Creating AMGLevel 
[2] Building level 5
[0] Building level 4
[1] Building level 5
[3] Building level 5
[2] Building level 6
[1] Building level 6
[2] Building level 7
[3] Building level 6
Creating AMGLevel 
[1] Building level 7
[0] Building level 5
[2] Building level 8
[2] Building level 9
[1] Building level 8
[2] Building level 10
[2] Building level 11
[1] Building level 9
[2] Building level 12
[2] Building level 13
[2] Building level 14
[3] Building level 7
[1] Building level 10
[1] Building level 11
[1] Building level 12
[1] Building level 13
[1] Building level 14
[3] Building level 8
[3] Building level 9
Creating AMGLevel 
[0] Building level 6
[3] Building level 10
[3] Building level 11
[3] Building level 12
[3] Building level 13
[3] Building level 14
Creating AMGLevel 
[0] Building level 7
Creating AMGLevel 
[0] Building level 8
Creating AMGLevel 
[0] Building level 9
Creating AMGLevel 
[0] Building level 10
Creating AMGLevel 
[0] Building level 11
Creating AMGLevel 
[0] Building level 12
Creating AMGLevel 
[0] Building level 13
Creating AMGLevel 
[0] Building level 14
Creating AMGLevel 
14 Level construction complete
PCGAMG:  Solving for pcorr, Initial residual = 0, Final residual = 0, No Iterations 0
time step continuity errors : sum local = 0, global = 0, cumulative = 0
Courant Number mean: 0 max: 0 velocity magnitude: 0

Starting time loop

Courant Number mean: 0 max: 0 velocity magnitude: 0
Time = 0.001

MULES: Solving for alpha1
Liquid phase volume fraction = 0.00275421  Min(alpha1) = 0  Max(alpha1) = 1
MULES: Solving for alpha1
Liquid phase volume fraction = 0.00275421  Min(alpha1) = 0  Max(alpha1) = 1
[2] Building level 0
[3] Building level 0
[1] Building level 0
Created persistent data with name pd
[0] Building level 0
Creating AMGLevel 
[3] Building level 1
[1] Building level 1
[2] Building level 1
[0] Building level 1
[2] Building level 2
[1] Building level 2
[3] Building level 2
Creating AMGLevel 
[0] Building level 2
[1] Building level 3
[2] Building level 3
[3] Building level 3
Creating AMGLevel 
[0] Building level 3
[2] Building level 4
[1] Building level 4
[3] Building level 4
Creating AMGLevel 
[0] Building level 4
[2] Building level 5
[1] Building level 5
[3] Building level 5
[2] Building level 6
[1] Building level 6
Creating AMGLevel 
[0] Building level 5
[2] Building level 7
[3] Building level 6
[1] Building level 7
[2] Building level 8
[1] Building level 8
[2] Building level 9
[2] Building level 10
[1] Building level 9
[3] Building level 7
[2] Building level 11
Creating AMGLevel 
[1] Building level 10
[2] Building level 12
[0] Building level 6
[2] Building level 13
[2] Building level 14
[1] Building level 11
[1] Building level 12
[1] Building level 13
[1] Building level 14
[3] Building level 8
[3] Building level 9
[3] Building level 10
[3] Building level 11
Creating AMGLevel 
[0] Building level 7
[3] Building level 12
[3] Building level 13
[3] Building level 14
Creating AMGLevel 
[0] Building level 8
Creating AMGLevel 
[0] Building level 9
Creating AMGLevel 
[0] Building level 10
Creating AMGLevel 
[0] Building level 11
Creating AMGLevel 
[0] Building level 12
Creating AMGLevel 
[0] Building level 13
Creating AMGLevel 
[0] Building level 14
Creating AMGLevel 
14 Level construction complete
GPU: 1 iters: 0.584808 s: 1.11906 GB/s
PCGAMG:  Solving for pd, Initial residual = 1, Final residual = 0.0347811, No Iterations 1
[1] Building level 0
[3] Building level 0
[2] Building level 0
[0] Building level 0
[2] Building level 1
[3] Building level 1
[0] Building level 1
[1] Building level 1
[3] Building level 2
[2] Building level 2
[1] Building level 2
[0] Building level 2
[3] Building level 3
[2] Building level 3
[1] Building level 3
[0] Building level 3
[1] Building level 4
[2] Building level 4
[0] Building level 4
[3] Building level 4
[1] Building level 5
[2] Building level 5
[0] Building level 5
[3] Building level 5
[1] Building level 6
[2] Building level 6
[0] Building level 6
[3] Building level 6
[1] Building level 7
[2] Building level 7
[0] Building level 7
[1] Building level 8
[2] Building level 8
[3] Building level 7
[0] Building level 8
[1] Building level 9
[2] Building level 9
[1] Building level 10
[0] Building level 9
[1] Building level 11
[2] Building level 10
[1] Building level 12
[1] Building level 13
[1] Building level 14
[2] Building level 11
[0] Building level 10
[2] Building level 12
[3] Building level 8
[2] Building level 13
[2] Building level 14
[0] Building level 11
[0] Building level 12
[0] Building level 13
[0] Building level 14
14 Level construction complete
[3] Building level 9
[3] Building level 10
[3] Building level 11
[3] Building level 12
[3] Building level 13
[3] Building level 14
GPU: 3 iters: 1.17472 s: 1.6713 GB/s
PCGAMG:  Solving for pd, Initial residual = 0.0222779, Final residual = 0.000979849, No Iterations 3
[2] Building level 0
[0] Building level 0
[1] Building level 0
[3] Building level 0
[2] Building level 1
[0] Building level 1
[1] Building level 1
[3] Building level 1
[2] Building level 2
[3] Building level 2
[1] Building level 2
[0] Building level 2
[3] Building level 3
[2] Building level 3
[1] Building level 3
[0] Building level 3
[1] Building level 4
[2] Building level 4
[0] Building level 4
[3] Building level 4
[1] Building level 5
[2] Building level 5
[0] Building level 5
[3] Building level 5
[1] Building level 6
[2] Building level 6
[0] Building level 6
[3] Building level 6
[1] Building level 7
[2] Building level 7
[0] Building level 7
[1] Building level 8
[2] Building level 8
[3] Building level 7
[0] Building level 8
[1] Building level 9
[2] Building level 9
[1] Building level 10
[1] Building level 11
[0] Building level 9
[1] Building level 12
[1] Building level 13
[2] Building level 10
[1] Building level 14
[2] Building level 11
[0] Building level 10
[2] Building level 12
[2] Building level 13
[3] Building level 8
[2] Building level 14
[0] Building level 11
[0] Building level 12
[0] Building level 13
[0] Building level 14
14 Level construction complete
[3] Building level 9
[3] Building level 10
[3] Building level 11
[3] Building level 12
[3] Building level 13
[3] Building level 14
GPU: 17 iters: 5.28001 s: 2.10709 GB/s
PCGAMG:  Solving for pd, Initial residual = 0.00562901, Final residual = 7.91293e-08, No Iterations 17
time step continuity errors : sum local = 5.88206e-12, global = 8.78621e-25, cumulative = 8.78621e-25
ExecutionTime = 128.41 s  ClockTime = 141 s

Courant Number mean: 4.86856e-06 max: 0.00215808 velocity magnitude: 0.03372
Time = 0.002

MULES: Solving for alpha1
Liquid phase volume fraction = 0.00275421  Min(alpha1) = 0  Max(alpha1) = 1
MULES: Solving for alpha1
Liquid phase volume fraction = 0.00275421  Min(alpha1) = 0  Max(alpha1) = 1
[0] Building level 0
[1] Building level 0
[3] Building level 0
[2] Building level 0
[3] Building level 1
[1] Building level 1
[2] Building level 1
[0] Building level 1
Reconstruction on level 1
[1] Building level 2
[2] Building level 2
[3] Building level 2
Creating AMGLevel 
[0] Building level 2
Reconstruction on level 2
[1] Building level 3
[2] Building level 3
[3] Building level 3
Creating AMGLevel 
[0] Building level 3
Reconstruction on level 3
[1] Building level 4
[2] Building level 4
Creating AMGLevel 
[3] Building level 4
[0] Building level 4
Reconstruction on level 4
[1] Building level 5
[2] Building level 5
[1] Building level 6
Creating AMGLevel 
[3] Building level 5
[0] Building level 5
Reconstruction on level 5
[1] Building level 7
[2] Building level 6
[1] Building level 8
[1] Building level 9
[1] Building level 10
[1] Building level 11
[2] Building level 7
[1] Building level 12
[1] Building level 13
[1] Building level 14
[3] Building level 6
Creating AMGLevel 
[0] Building level 6
Reconstruction on level 6
[2] Building level 8
[2] Building level 9
[2] Building level 10
[2] Building level 11
[3] Building level 7
[2] Building level 12
[2] Building level 13
Creating AMGLevel 
[2] Building level 14
[0] Building level 7
Reconstruction on level 7
[3] Building level 8
Creating AMGLevel 
[0] Building level 8
Reconstruction on level 8
[3] Building level 9
[3] Building level 10
Creating AMGLevel 
[0] Building level 9
Reconstruction on level 9
[3] Building level 11
[3] Building level 12
[3] Building level 13
[3] Building level 14
Creating AMGLevel 
[0] Building level 10
Reconstruction on level 10
Creating AMGLevel 
[0] Building level 11
Reconstruction on level 11
Creating AMGLevel 
[0] Building level 12
Reconstruction on level 12
Creating AMGLevel 
[0] Building level 13
Reconstruction on level 13
Creating AMGLevel 
[0] Building level 14
Reconstruction on level 14
Creating AMGLevel 
14 Level construction complete
GPU: 4 iters: 1.44096 s: 1.81668 GB/s
PCGAMG:  Solving for pd, Initial residual = 0.00352145, Final residual = 8.25795e-05, No Iterations 4
[2] Building level 0
[3] Building level 0
[0] Building level 0
[1] Building level 0
[3] Building level 1
[2] Building level 1
[0] Building level 1
[1] Building level 1
[2] Building level 2
[1] Building level 2
[0] Building level 2
[3] Building level 2
[2] Building level 3
[1] Building level 3
[0] Building level 3
[3] Building level 3
[1] Building level 4
[0] Building level 4
[2] Building level 4
[3] Building level 4
[1] Building level 5
[0] Building level 5
[2] Building level 5
[1] Building level 6
[3] Building level 5
[0] Building level 6
[1] Building level 7
[2] Building level 6
[1] Building level 8
[1] Building level 9
[0] Building level 7
[1] Building level 10
[3] Building level 6
[1] Building level 11
[1] Building level 12
[1] Building level 13
[1] Building level 14
[2] Building level 7
[0] Building level 8
[2] Building level 8
[0] Building level 9
[0] Building level 10
[0] Building level 11
[3] Building level 7
[2] Building level 9
[0] Building level 12
[0] Building level 13
[0] Building level 14
14 Level construction complete
[2] Building level 10
[2] Building level 11
[2] Building level 12
[2] Building level 13
[2] Building level 14
[3] Building level 8
[3] Building level 9
[3] Building level 10
[3] Building level 11
[3] Building level 12
[3] Building level 13
[3] Building level 14
GPU: 4 iters: 1.45248 s: 1.80227 GB/s
PCGAMG:  Solving for pd, Initial residual = 0.00207817, Final residual = 7.22003e-05, No Iterations 4
[3] Building level 0
[0] Building level 0
[2] Building level 0
[1] Building level 0
[3] Building level 1
[2] Building level 1
[0] Building level 1
[1] Building level 1
[2] Building level 2
[1] Building level 2
[3] Building level 2
[0] Building level 2
[2] Building level 3
[1] Building level 3
[3] Building level 3
[0] Building level 3
[1] Building level 4
[0] Building level 4
[2] Building level 4
[3] Building level 4
[1] Building level 5
[0] Building level 5
[2] Building level 5
[1] Building level 6
[3] Building level 5
[0] Building level 6
[1] Building level 7
[2] Building level 6
[1] Building level 8
[1] Building level 9
[3] Building level 6
[0] Building level 7
[1] Building level 10
[1] Building level 11
[1] Building level 12
[1] Building level 13
[1] Building level 14
[0] Building level 8
[2] Building level 7
[0] Building level 9
[3] Building level 7
[0] Building level 10
[0] Building level 11
[2] Building level 8
[0] Building level 12
[0] Building level 13
[0] Building level 14
14 Level construction complete
[2] Building level 9
[3] Building level 8
[2] Building level 10
[2] Building level 11
[2] Building level 12
[3] Building level 9
[2] Building level 13
[2] Building level 14
[3] Building level 10
[3] Building level 11
[3] Building level 12
[3] Building level 13
[3] Building level 14
GPU: 43 iters: 12.7107 s: 2.21395 GB/s
PCGAMG:  Solving for pd, Initial residual = 0.00192627, Final residual = 9.17455e-08, No Iterations 43
time step continuity errors : sum local = 4.30641e-12, global = 1.10381e-24, cumulative = 1.98243e-24
ExecutionTime = 191.45 s  ClockTime = 206 s

Courant Number mean: 7.66798e-06 max: 0.00313193 velocity magnitude: 0.0489364
Time = 0.003

MULES: Solving for alpha1
Liquid phase volume fraction = 0.00275421  Min(alpha1) = -1.8203e-30  Max(alpha1) = 1
MULES: Solving for alpha1
Liquid phase volume fraction = 0.00275421  Min(alpha1) = -6.63945e-30  Max(alpha1) = 1
[1] Building level 0
[3] Building level 0
[2] Building level 0
[0] Building level 0
[3] Building level 1
[2] Building level 1
[1] Building level 1
[0] Building level 1
Reconstruction on level 1
[2] Building level 2
[1] Building level 2
[1] Building level 3
[2] Building level 3
[3] Building level 2
[1] Building level 4
Creating AMGLevel 
[0] Building level 2
Reconstruction on level 2
[2] Building level 4
[1] Building level 5
[2] Building level 5
[1] Building level 6
[3] Building level 3
[1] Building level 7
[2] Building level 6
Creating AMGLevel 
[0] Building level 3
Reconstruction on level 3
[1] Building level 8
[1] Building level 9
[2] Building level 7
[1] Building level 10
[1] Building level 11
[1] Building level 12
[1] Building level 13
[1] Building level 14
[2] Building level 8
[2] Building level 9
[2] Building level 10
[2] Building level 11
[2] Building level 12
[2] Building level 13
[2] Building level 14
[3] Building level 4
Creating AMGLevel 
[0] Building level 4
Reconstruction on level 4
[3] Building level 5
Creating AMGLevel 
[0] Building level 5
Reconstruction on level 5
[3] Building level 6
[3] Building level 7
Creating AMGLevel 
[0] Building level 6
Reconstruction on level 6
[3] Building level 8
[3] Building level 9
[3] Building level 10
Creating AMGLevel 
[3] Building level 11
[0] Building level 7
Reconstruction on level 7
[3] Building level 12
[3] Building level 13
[3] Building level 14
Creating AMGLevel 
[0] Building level 8
Reconstruction on level 8
Creating AMGLevel 
[0] Building level 9
Reconstruction on level 9
Creating AMGLevel 
[0] Building level 10
Reconstruction on level 10
Creating AMGLevel 
[0] Building level 11
Reconstruction on level 11
Creating AMGLevel 
[0] Building level 12
Reconstruction on level 12
Creating AMGLevel 
[0] Building level 13
Reconstruction on level 13
Creating AMGLevel 
[0] Building level 14
Reconstruction on level 14
Creating AMGLevel 
14 Level construction complete
GPU: 6 iters: 1.94326 s: 2.02064 GB/s
PCGAMG:  Solving for pd, Initial residual = 0.0042552, Final residual = 0.000159641, No Iterations 6
[0] Building level 0
[1] Building level 0
[3] Building level 0
[2] Building level 0
[3] Building level 1
[2] Building level 1
[1] Building level 1
[0] Building level 1
[3] Building level 2
[2] Building level 2
[1] Building level 2
[0] Building level 2
[3] Building level 3
[2] Building level 3
[1] Building level 3
[0] Building level 3
[1] Building level 4
[2] Building level 4
[3] Building level 4
[0] Building level 4
[1] Building level 5
[0] Building level 5
[2] Building level 5
[3] Building level 5
[1] Building level 6
[0] Building level 6
[1] Building level 7
[2] Building level 6
[3] Building level 6
[1] Building level 8
[1] Building level 9
[1] Building level 10
[1] Building level 11
[0] Building level 7
[1] Building level 12
[1] Building level 13
[1] Building level 14
[2] Building level 7
[3] Building level 7
[0] Building level 8
[3] Building level 8
[2] Building level 8
[0] Building level 9
[0] Building level 10
[2] Building level 9
[3] Building level 9
[0] Building level 11
[0] Building level 12
[0] Building level 13
[3] Building level 10
[2] Building level 10
[0] Building level 14
14 Level construction complete
[3] Building level 11
[2] Building level 11
[3] Building level 12
[2] Building level 12
[3] Building level 13
[2] Building level 13
[3] Building level 14
[2] Building level 14
GPU: 6 iters: 1.93618 s: 2.02803 GB/s
PCGAMG:  Solving for pd, Initial residual = 0.00304874, Final residual = 7.06063e-05, No Iterations 6
[0] Building level 0
[3] Building level 0
[2] Building level 0
[1] Building level 0
[3] Building level 1
[2] Building level 1
[0] Building level 1
[1] Building level 1
[3] Building level 2
[2] Building level 2
[1] Building level 2
[0] Building level 2
[3] Building level 3
[2] Building level 3
[1] Building level 3
[0] Building level 3
[1] Building level 4
[2] Building level 4
[3] Building level 4
[0] Building level 4
[1] Building level 5
[0] Building level 5
[3] Building level 5
[2] Building level 5
[1] Building level 6
[1] Building level 7
[0] Building level 6
[3] Building level 6
[2] Building level 6
[1] Building level 8
[1] Building level 9
[1] Building level 10
[1] Building level 11
[1] Building level 12
[1] Building level 13
[0] Building level 7
[1] Building level 14
[3] Building level 7
[2] Building level 7
[0] Building level 8
[3] Building level 8
[2] Building level 8
[0] Building level 9
[3] Building level 9
[0] Building level 10
[2] Building level 9
[0] Building level 11
[0] Building level 12
[0] Building level 13
[3] Building level 10
[2] Building level 10
[0] Building level 14
14 Level construction complete
[3] Building level 11
[2] Building level 11
[2] Building level 12
[3] Building level 12
[2] Building level 13
[3] Building level 13
[3] Building level 14
[2] Building level 14
GPU: 19 iters: 5.54247 s: 2.24346 GB/s
PCGAMG:  Solving for pd, Initial residual = 0.00256394, Final residual = 8.53722e-08, No Iterations 19
time step continuity errors : sum local = 4.00873e-12, global = -7.89842e-24, cumulative = -5.91599e-24
ExecutionTime = 249.45 s  ClockTime = 266 s

Courant Number mean: 1.35656e-05 max: 0.00482505 velocity magnitude: 0.0753915
Time = 0.004

MULES: Solving for alpha1
Liquid phase volume fraction = 0.00275421  Min(alpha1) = -1.42428e-29  Max(alpha1) = 1
MULES: Solving for alpha1
Liquid phase volume fraction = 0.00275421  Min(alpha1) = -5.12095e-30  Max(alpha1) = 1
[0] Building level 0
[2] Building level 0
[1] Building level 0
[3] Building level 0
[3] Building level 1
[2] Building level 1
[0] Building level 1
[1] Building level 1
[1] Building level 2
[0] Building level 2
Reconstruction on level 2
[1] Building level 3
Creating AMGLevel 
[0] Building level 3
Reconstruction on level 3
[2] Building level 2
[3] Building level 2
[1] Building level 4
Creating AMGLevel 
[0] Building level 4
Reconstruction on level 4
[1] Building level 5
Creating AMGLevel 
[0] Building level 5
Reconstruction on level 5
[2] Building level 3
[1] Building level 6
[3] Building level 3
[1] Building level 7
[1] Building level 8
Creating AMGLevel 
[0] Building level 6
Reconstruction on level 6
[1] Building level 9
[1] Building level 10
[1] Building level 11
[1] Building level 12
[1] Building level 13
[1] Building level 14
Creating AMGLevel 
[0] Building level 7
Reconstruction on level 7
Creating AMGLevel 
[0] Building level 8
Reconstruction on level 8
Creating AMGLevel 
[0] Building level 9
Reconstruction on level 9
Creating AMGLevel 
[0] Building level 10
Reconstruction on level 10
Creating AMGLevel 
[0] Building level 11
Reconstruction on level 11
Creating AMGLevel 
[0] Building level 12
Reconstruction on level 12
Creating AMGLevel 
[0] Building level 13
Reconstruction on level 13
Creating AMGLevel 
[0] Building level 14
Reconstruction on level 14
Creating AMGLevel 
14 Level construction complete
[3] Building level 4
[2] Building level 4
[3] Building level 5
[2] Building level 5
[3] Building level 6
[2] Building level 6
[3] Building level 7
[2] Building level 7
[3] Building level 8
[2] Building level 8
[3] Building level 9
[2] Building level 9
[3] Building level 10
[2] Building level 10
[3] Building level 11
[2] Building level 11
[3] Building level 12
[2] Building level 12
[3] Building level 13
[2] Building level 13
[3] Building level 14
[2] Building level 14
GPU: 4 iters: 1.39935 s: 1.87069 GB/s
PCGAMG:  Solving for pd, Initial residual = 0.0034317, Final residual = 9.45908e-05, No Iterations 4
[3] Building level 0
[1] Building level 0
[2] Building level 0
[0] Building level 0
[3] Building level 1
[2] Building level 1
[0] Building level 1
[1] Building level 1
[2] Building level 2
[1] Building level 2
[3] Building level 2
[0] Building level 2
[2] Building level 3
[1] Building level 3
[0] Building level 3
[3] Building level 3
[1] Building level 4
[2] Building level 4
[3] Building level 4
[0] Building level 4
[1] Building level 5
[2] Building level 5
[0] Building level 5
[3] Building level 5
[1] Building level 6
[1] Building level 7
[2] Building level 6
[1] Building level 8
[0] Building level 6
[1] Building level 9
[3] Building level 6
[1] Building level 10
[1] Building level 11
[1] Building level 12
[1] Building level 13
[1] Building level 14
[2] Building level 7
[0] Building level 7
[2] Building level 8
[3] Building level 7
[2] Building level 9
[0] Building level 8
[2] Building level 10
[2] Building level 11
[2] Building level 12
[2] Building level 13
[0] Building level 9
[3] Building level 8
[2] Building level 14
[0] Building level 10
[0] Building level 11
[0] Building level 12
[3] Building level 9
[0] Building level 13
[0] Building level 14
14 Level construction complete
[3] Building level 10
[3] Building level 11
[3] Building level 12
[3] Building level 13
[3] Building level 14
GPU: 4 iters: 1.38953 s: 1.88391 GB/s
PCGAMG:  Solving for pd, Initial residual = 0.00316357, Final residual = 0.000144216, No Iterations 4
[0] Building level 0
[1] Building level 0
[2] Building level 0
[3] Building level 0
[3] Building level 1
[2] Building level 1
[0] Building level 1
[1] Building level 1
[2] Building level 2
[1] Building level 2
[3] Building level 2
[0] Building level 2
[2] Building level 3
[1] Building level 3
[0] Building level 3
[3] Building level 3
[1] Building level 4
[2] Building level 4
[3] Building level 4
[0] Building level 4
[1] Building level 5
[2] Building level 5
[0] Building level 5
[3] Building level 5
[1] Building level 6
[1] Building level 7
[2] Building level 6
[1] Building level 8
[0] Building level 6
[3] Building level 6
[1] Building level 9
[1] Building level 10
[1] Building level 11
[1] Building level 12
[1] Building level 13
[1] Building level 14
[2] Building level 7
[0] Building level 7
[2] Building level 8
[3] Building level 7
[2] Building level 9
[0] Building level 8
[2] Building level 10
[2] Building level 11
[3] Building level 8
[2] Building level 12
[2] Building level 13
[2] Building level 14
[0] Building level 9
[3] Building level 9
[0] Building level 10
[0] Building level 11
[3] Building level 10
[0] Building level 12
[0] Building level 13
[0] Building level 14
14 Level construction complete
[3] Building level 11
[3] Building level 12
[3] Building level 13
[3] Building level 14
GPU: 15 iters: 4.48236 s: 2.19004 GB/s
PCGAMG:  Solving for pd, Initial residual = 0.00243887, Final residual = 9.01502e-08, No Iterations 15
time step continuity errors : sum local = 4.21616e-12, global = 2.71776e-24, cumulative = -3.19823e-24
ExecutionTime = 305.29 s  ClockTime = 324 s

Courant Number mean: 1.9242e-05 max: 0.00597577 velocity magnitude: 0.0933715
Time = 0.005

MULES: Solving for alpha1
Liquid phase volume fraction = 0.00275421  Min(alpha1) = -6.07305e-30  Max(alpha1) = 1
MULES: Solving for alpha1
Liquid phase volume fraction = 0.00275421  Min(alpha1) = -2.62665e-29  Max(alpha1) = 1
[0] Building level 0
[2] Building level 0
[3] Building level 0
[1] Building level 0
[3] Building level 1
[2] Building level 1
[1] Building level 1
[0] Building level 1
Reconstruction on level 1
[2] Building level 2
[1] Building level 2
[1] Building level 3
[2] Building level 3
[3] Building level 2
Creating AMGLevel 
[1] Building level 4
[0] Building level 2
Reconstruction on level 2
[2] Building level 4
[1] Building level 5
[2] Building level 5
[1] Building level 6
[3] Building level 3
[2] Building level 6
Creating AMGLevel 
[0] Building level 3
Reconstruction on level 3
[1] Building level 7
[1] Building level 8
[2] Building level 7
[1] Building level 9
[1] Building level 10
[2] Building level 8
[1] Building level 11
[1] Building level 12
[1] Building level 13
[1] Building level 14
[2] Building level 9
[2] Building level 10
[2] Building level 11
[2] Building level 12
[2] Building level 13
[2] Building level 14
[3] Building level 4
Creating AMGLevel 
[0] Building level 4
Reconstruction on level 4
[3] Building level 5
Creating AMGLevel 
[0] Building level 5
Reconstruction on level 5
[3] Building level 6
[3] Building level 7
Creating AMGLevel 
[0] Building level 6
Reconstruction on level 6
[3] Building level 8
[3] Building level 9
[3] Building level 10
[3] Building level 11
Creating AMGLevel 
[0] Building level 7
Reconstruction on level 7
[3] Building level 12
[3] Building level 13
[3] Building level 14
Creating AMGLevel 
[0] Building level 8
Reconstruction on level 8
Creating AMGLevel 
[0] Building level 9
Reconstruction on level 9
Creating AMGLevel 
[0] Building level 10
Reconstruction on level 10
Creating AMGLevel 
[0] Building level 11
Reconstruction on level 11
Creating AMGLevel 
[0] Building level 12
Reconstruction on level 12
Creating AMGLevel 
[0] Building level 13
Reconstruction on level 13
Creating AMGLevel 
[0] Building level 14
Reconstruction on level 14
Creating AMGLevel 
14 Level construction complete
GPU: 4 iters: 1.44273 s: 1.81444 GB/s
PCGAMG:  Solving for pd, Initial residual = 0.00216699, Final residual = 8.92233e-05, No Iterations 4
[1] Building level 0
[3] Building level 0
[0] Building level 0
[2] Building level 0
[3] Building level 1
[2] Building level 1
[0] Building level 1
[1] Building level 1
[2] Building level 2
[0] Building level 2
[1] Building level 2
[3] Building level 2
[2] Building level 3
[1] Building level 3
[0] Building level 3
[3] Building level 3
[1] Building level 4
[2] Building level 4
[0] Building level 4
[3] Building level 4
[1] Building level 5
[0] Building level 5
[2] Building level 5
[1] Building level 6
[3] Building level 5
[1] Building level 7
[0] Building level 6
[2] Building level 6
[1] Building level 8
[1] Building level 9
[3] Building level 6
[1] Building level 10
[1] Building level 11
[1] Building level 12
[1] Building level 13
[1] Building level 14
[0] Building level 7
[2] Building level 7
[0] Building level 8
[2] Building level 8
[3] Building level 7
[0] Building level 9
[0] Building level 10
[2] Building level 9
[0] Building level 11
[0] Building level 12
[0] Building level 13
[0] Building level 14
14 Level construction complete
[2] Building level 10
[2] Building level 11
[2] Building level 12
[2] Building level 13
[3] Building level 8
[2] Building level 14
[3] Building level 9
[3] Building level 10
[3] Building level 11
[3] Building level 12
[3] Building level 13
[3] Building level 14
GPU: 4 iters: 1.44826 s: 1.80752 GB/s
PCGAMG:  Solving for pd, Initial residual = 0.00179217, Final residual = 7.20605e-05, No Iterations 4
[1] Building level 0
[3] Building level 0
[2] Building level 0
[0] Building level 0
[3] Building level 1
[2] Building level 1
[1] Building level 1
[0] Building level 1
[2] Building level 2
[1] Building level 2
[0] Building level 2
[3] Building level 2
[2] Building level 3
[1] Building level 3
[0] Building level 3
[3] Building level 3
[1] Building level 4
[2] Building level 4
[0] Building level 4
[3] Building level 4
[1] Building level 5
[0] Building level 5
[2] Building level 5
[1] Building level 6
[3] Building level 5
[1] Building level 7
[0] Building level 6
[2] Building level 6
[1] Building level 8
[1] Building level 9
[3] Building level 6
[1] Building level 10
[1] Building level 11
[1] Building level 12
[1] Building level 13
[1] Building level 14
[0] Building level 7
[2] Building level 7
[0] Building level 8
[2] Building level 8
[3] Building level 7
[0] Building level 9
[0] Building level 10
[2] Building level 9
[0] Building level 11
[0] Building level 12
[0] Building level 13
[0] Building level 14
14 Level construction complete
[2] Building level 10
[2] Building level 11
[2] Building level 12
[2] Building level 13
[2] Building level 14
[3] Building level 8
[3] Building level 9
[3] Building level 10
[3] Building level 11
[3] Building level 12
[3] Building level 13
[3] Building level 14
GPU: 26 iters: 7.82215 s: 2.17528 GB/s
PCGAMG:  Solving for pd, Initial residual = 0.00144976, Final residual = 9.43565e-08, No Iterations 26
time step continuity errors : sum local = 4.40037e-12, global = -3.14665e-24, cumulative = -6.34487e-24
ExecutionTime = 365.4 s  ClockTime = 386 s

Courant Number mean: 2.4382e-05 max: 0.00683537 velocity magnitude: 0.106803
Time = 0.006

MULES: Solving for alpha1
Liquid phase volume fraction = 0.00275421  Min(alpha1) = -1.54893e-30  Max(alpha1) = 1
MULES: Solving for alpha1
Liquid phase volume fraction = 0.00275421  Min(alpha1) = -1.33949e-30  Max(alpha1) = 1
[1] Building level 0
[3] Building level 0
[2] Building level 0
[0] Building level 0
[3] Building level 1
[0] Building level 1
Reconstruction on level 1
[2] Building level 1
[1] Building level 1
[2] Building level 2
[1] Building level 2
[1] Building level 3
[2] Building level 3
[3] Building level 2
Creating AMGLevel 
[0] Building level 2
Reconstruction on level 2
[1] Building level 4
[2] Building level 4
[1] Building level 5
[2] Building level 5
[3] Building level 3
[1] Building level 6
[2] Building level 6
Creating AMGLevel 
[0] Building level 3
Reconstruction on level 3
[1] Building level 7
[2] Building level 7
[1] Building level 8
[2] Building level 8
[1] Building level 9
[2] Building level 9
[1] Building level 10
[1] Building level 11
[2] Building level 10
[1] Building level 12
[1] Building level 13
[2] Building level 11
[1] Building level 14
[2] Building level 12
[2] Building level 13
[2] Building level 14
[3] Building level 4
Creating AMGLevel 
[0] Building level 4
Reconstruction on level 4
[3] Building level 5
Creating AMGLevel 
[0] Building level 5
Reconstruction on level 5
[3] Building level 6
Creating AMGLevel 
[0] Building level 6
Reconstruction on level 6
[3] Building level 7
[3] Building level 8
Creating AMGLevel 
[0] Building level 7
Reconstruction on level 7
[3] Building level 9
[3] Building level 10
[3] Building level 11
[3] Building level 12
[3] Building level 13
[3] Building level 14
Creating AMGLevel 
[0] Building level 8
Reconstruction on level 8
Creating AMGLevel 
[0] Building level 9
Reconstruction on level 9
Creating AMGLevel 
[0] Building level 10
Reconstruction on level 10
Creating AMGLevel 
[0] Building level 11
Reconstruction on level 11
Creating AMGLevel 
[0] Building level 12
Reconstruction on level 12
Creating AMGLevel 
[0] Building level 13
Reconstruction on level 13
Creating AMGLevel 
[0] Building level 14
Reconstruction on level 14
Creating AMGLevel 
14 Level construction complete
GPU: 4 iters: 1.39221 s: 1.88029 GB/s
PCGAMG:  Solving for pd, Initial residual = 0.00227785, Final residual = 0.000103724, No Iterations 4
[3] Building level 0
[1] Building level 0
[2] Building level 0
[0] Building level 0
[3] Building level 1
[2] Building level 1
[0] Building level 1
[1] Building level 1
[1] Building level 2
[2] Building level 2
[3] Building level 2
[0] Building level 2
[2] Building level 3
[1] Building level 3
[3] Building level 3
[0] Building level 3
[1] Building level 4
[2] Building level 4
[3] Building level 4
[0] Building level 4
[1] Building level 5
[2] Building level 5
[3] Building level 5
[0] Building level 5
[1] Building level 6
[1] Building level 7
[2] Building level 6
[3] Building level 6
[0] Building level 6
[1] Building level 8
[1] Building level 9
[1] Building level 10
[1] Building level 11
[1] Building level 12
[2] Building level 7
[1] Building level 13
[1] Building level 14
[3] Building level 7
[0] Building level 7
[2] Building level 8
[2] Building level 9
[3] Building level 8
[2] Building level 10
[0] Building level 8
[2] Building level 11
[2] Building level 12
[2] Building level 13
[2] Building level 14
[3] Building level 9
[0] Building level 9
[3] Building level 10
[0] Building level 10
[3] Building level 11
[3] Building level 12
[3] Building level 13
[0] Building level 11
[3] Building level 14
[0] Building level 12
[0] Building level 13
[0] Building level 14
14 Level construction complete
GPU: 6 iters: 1.95397 s: 2.00957 GB/s
PCGAMG:  Solving for pd, Initial residual = 0.0011882, Final residual = 5.6927e-05, No Iterations 6
[3] Building level 0
[2] Building level 0
[0] Building level 0
[1] Building level 0
[3] Building level 1
[2] Building level 1
[0] Building level 1
[1] Building level 1
[2] Building level 2
[1] Building level 2
[3] Building level 2
[0] Building level 2
[2] Building level 3
[1] Building level 3
[0] Building level 3
[3] Building level 3
[1] Building level 4
[2] Building level 4
[0] Building level 4
[3] Building level 4
[1] Building level 5
[2] Building level 5
[0] Building level 5
[1] Building level 6
[3] Building level 5
[2] Building level 6
[1] Building level 7
[0] Building level 6
[1] Building level 8
[2] Building level 7
[1] Building level 9
[1] Building level 10
[3] Building level 6
[1] Building level 11
[1] Building level 12
[1] Building level 13
[1] Building level 14
[2] Building level 8
[2] Building level 9
[0] Building level 7
[2] Building level 10
[2] Building level 11
[2] Building level 12
[2] Building level 13
[2] Building level 14
[3] Building level 7
[0] Building level 8
[0] Building level 9
[0] Building level 10
[3] Building level 8
[0] Building level 11
[0] Building level 12
[0] Building level 13
[0] Building level 14
14 Level construction complete
[3] Building level 9
[3] Building level 10
[3] Building level 11
[3] Building level 12
[3] Building level 13
[3] Building level 14
GPU: 50 iters: 14.2376 s: 2.29826 GB/s
PCGAMG:  Solving for pd, Initial residual = 0.000726652, Final residual = 3.23256e-07, No Iterations 50
time step continuity errors : sum local = 1.50224e-11, global = -3.78359e-24, cumulative = -1.01285e-23
ExecutionTime = 431.75 s  ClockTime = 455 s

Courant Number mean: 2.94977e-05 max: 0.00763859 velocity magnitude: 0.119353
Time = 0.007

MULES: Solving for alpha1
Liquid phase volume fraction = 0.00275421  Min(alpha1) = -4.40263e-30  Max(alpha1) = 1
MULES: Solving for alpha1
Liquid phase volume fraction = 0.00275421  Min(alpha1) = -4.96338e-30  Max(alpha1) = 1
[3] Building level 0
[0] Building level 0
[2] Building level 0
[1] Building level 0
[3] Building level 1
[2] Building level 1
[0] Building level 1
[1] Building level 1
[2] Building level 2
[1] Building level 2
[0] Building level 2
Reconstruction on level 2
[1] Building level 3
[2] Building level 3
Creating AMGLevel 
[0] Building level 3
Reconstruction on level 3
[3] Building level 2
[1] Building level 4
[2] Building level 4
Creating AMGLevel 
[0] Building level 4
Reconstruction on level 4
[1] Building level 5
[2] Building level 5
Creating AMGLevel 
[0] Building level 5
Reconstruction on level 5
[3] Building level 3
[1] Building level 6
[2] Building level 6
[1] Building level 7
[2] Building level 7
Creating AMGLevel 
[0] Building level 6
Reconstruction on level 6
[1] Building level 8
[1] Building level 9
[2] Building level 8
[1] Building level 10
[1] Building level 11
[1] Building level 12
[2] Building level 9
[1] Building level 13
[1] Building level 14
[2] Building level 10
[2] Building level 11
[2] Building level 12
Creating AMGLevel 
[0] Building level 7
Reconstruction on level 7
[2] Building level 13
[2] Building level 14
Creating AMGLevel 
[0] Building level 8
Reconstruction on level 8
Creating AMGLevel 
[0] Building level 9
Reconstruction on level 9
Creating AMGLevel 
[0] Building level 10
Reconstruction on level 10
Creating AMGLevel 
[0] Building level 11
Reconstruction on level 11
Creating AMGLevel 
[0] Building level 12
Reconstruction on level 12
Creating AMGLevel 
[0] Building level 13
Reconstruction on level 13
[3] Building level 4
Creating AMGLevel 
[0] Building level 14
Reconstruction on level 14
Creating AMGLevel 
14 Level construction complete
[3] Building level 5
[3] Building level 6
[3] Building level 7
[3] Building level 8
[3] Building level 9
[3] Building level 10
[3] Building level 11
[3] Building level 12
[3] Building level 13
[3] Building level 14
GPU: 5 iters: 1.70923 s: 1.91442 GB/s
PCGAMG:  Solving for pd, Initial residual = 0.00232375, Final residual = 8.89044e-05, No Iterations 5
[0] Building level 0
[1] Building level 0
[3] Building level 0
[2] Building level 0
[3] Building level 1
[2] Building level 1
[0] Building level 1
[1] Building level 1
[2] Building level 2
[1] Building level 2
[3] Building level 2
[0] Building level 2
[2] Building level 3
[1] Building level 3
[0] Building level 3
[3] Building level 3
[1] Building level 4
[2] Building level 4
[3] Building level 4
[0] Building level 4
[1] Building level 5
[2] Building level 5
[0] Building level 5
[3] Building level 5
[1] Building level 6
[2] Building level 6
[3] Building level 6
[0] Building level 6
[1] Building level 7
[2] Building level 7
[1] Building level 8
[3] Building level 7
[0] Building level 7
[1] Building level 9
[1] Building level 10
[1] Building level 11
[2] Building level 8
[1] Building level 12
[1] Building level 13
[1] Building level 14
[3] Building level 8
[0] Building level 8
[2] Building level 9
[3] Building level 9
[2] Building level 10
[2] Building level 11
[3] Building level 10
[2] Building level 12
[2] Building level 13
[2] Building level 14
[3] Building level 11
[0] Building level 9
[3] Building level 12
[3] Building level 13
[3] Building level 14
[0] Building level 10
[0] Building level 11
[0] Building level 12
[0] Building level 13
[0] Building level 14
14 Level construction complete
GPU: 6 iters: 2.02051 s: 1.94338 GB/s
PCGAMG:  Solving for pd, Initial residual = 0.00108133, Final residual = 3.16619e-05, No Iterations 6
[3] Building level 0
[2] Building level 0
[1] Building level 0
[0] Building level 0
[3] Building level 1
[2] Building level 1
[0] Building level 1
[1] Building level 1
[2] Building level 2
[1] Building level 2
[0] Building level 2
[3] Building level 2
[1] Building level 3
[2] Building level 3
[0] Building level 3
[3] Building level 3
[1] Building level 4
[2] Building level 4
[0] Building level 4
[3] Building level 4
[1] Building level 5
[2] Building level 5
[0] Building level 5
[3] Building level 5
[1] Building level 6
[2] Building level 6
[0] Building level 6
[1] Building level 7
[3] Building level 6
[1] Building level 8
[2] Building level 7
[1] Building level 9
[1] Building level 10
[1] Building level 11
[0] Building level 7
[1] Building level 12
[1] Building level 13
[2] Building level 8
[1] Building level 14
[3] Building level 7
[2] Building level 9
[2] Building level 10
[0] Building level 8
[2] Building level 11
[2] Building level 12
[2] Building level 13
[2] Building level 14
[3] Building level 8
[0] Building level 9
[0] Building level 10
[0] Building level 11
[3] Building level 9
[0] Building level 12
[0] Building level 13
[0] Building level 14
14 Level construction complete
[3] Building level 10
[3] Building level 11
[3] Building level 12
[3] Building level 13
[3] Building level 14
GPU: 25 iters: 7.42624 s: 2.20313 GB/s
PCGAMG:  Solving for pd, Initial residual = 0.00052647, Final residual = 8.03709e-08, No Iterations 25
time step continuity errors : sum local = 3.72935e-12, global = -3.38614e-24, cumulative = -1.35146e-23
ExecutionTime = 491.09 s  ClockTime = 516 s

Courant Number mean: 3.46186e-05 max: 0.00834623 velocity magnitude: 0.13041
Time = 0.008

MULES: Solving for alpha1
Liquid phase volume fraction = 0.00275421  Min(alpha1) = -5.4459e-30  Max(alpha1) = 1
MULES: Solving for alpha1
Liquid phase volume fraction = 0.00275421  Min(alpha1) = -7.44606e-30  Max(alpha1) = 1
[1] Building level 0
[3] Building level 0
[2] Building level 0
[0] Building level 0
[3] Building level 1
[2] Building level 1
[1] Building level 1
[0] Building level 1
Reconstruction on level 1
[1] Building level 2
[1] Building level 3
[2] Building level 2
[3] Building level 2
Creating AMGLevel 
[0] Building level 2
Reconstruction on level 2
[1] Building level 4
[1] Building level 5
[2] Building level 3
[3] Building level 3
[1] Building level 6
Creating AMGLevel 
[0] Building level 3
Reconstruction on level 3
[1] Building level 7
[1] Building level 8
[1] Building level 9
[1] Building level 10
[1] Building level 11
[1] Building level 12
[1] Building level 13
[1] Building level 14
[2] Building level 4
[3] Building level 4
Creating AMGLevel 
[0] Building level 4
Reconstruction on level 4
[2] Building level 5
[3] Building level 5
[2] Building level 6
Creating AMGLevel 
[0] Building level 5
Reconstruction on level 5
[3] Building level 6
[2] Building level 7
[2] Building level 8
[2] Building level 9
[3] Building level 7
Creating AMGLevel 
[0] Building level 6
Reconstruction on level 6
[2] Building level 10
[2] Building level 11
[2] Building level 12
[2] Building level 13
[2] Building level 14
[3] Building level 8
[3] Building level 9
[3] Building level 10
[3] Building level 11
Creating AMGLevel 
[3] Building level 12
[0] Building level 7
Reconstruction on level 7
[3] Building level 13
[3] Building level 14
Creating AMGLevel 
[0] Building level 8
Reconstruction on level 8
Creating AMGLevel 
[0] Building level 9
Reconstruction on level 9
Creating AMGLevel 
[0] Building level 10
Reconstruction on level 10
Creating AMGLevel 
[0] Building level 11
Reconstruction on level 11
Creating AMGLevel 
[0] Building level 12
Reconstruction on level 12
Creating AMGLevel 
[0] Building level 13
Reconstruction on level 13
Creating AMGLevel 
[0] Building level 14
Reconstruction on level 14
Creating AMGLevel 
14 Level construction complete
GPU: 4 iters: 1.40909 s: 1.85776 GB/s
PCGAMG:  Solving for pd, Initial residual = 0.00235978, Final residual = 9.95788e-05, No Iterations 4
[0] Building level 0
[3] Building level 0
[2] Building level 0
[1] Building level 0
[3] Building level 1
[2] Building level 1
[0] Building level 1
[1] Building level 1
[2] Building level 2
[1] Building level 2
[0] Building level 2
[3] Building level 2
[2] Building level 3
[1] Building level 3
[0] Building level 3
[3] Building level 3
[1] Building level 4
[0] Building level 4
[2] Building level 4
[3] Building level 4
[1] Building level 5
[0] Building level 5
[2] Building level 5
[3] Building level 5
[1] Building level 6
[0] Building level 6
[1] Building level 7
[2] Building level 6
[0] Building level 7
[3] Building level 6
[1] Building level 8
[1] Building level 9
[1] Building level 10
[0] Building level 8
[1] Building level 11
[1] Building level 12
[1] Building level 13
[1] Building level 14
[0] Building level 9
[2] Building level 7
[0] Building level 10
[0] Building level 11
[0] Building level 12
[0] Building level 13
[0] Building level 14
[3] Building level 7
14 Level construction complete
[2] Building level 8
[3] Building level 8
[2] Building level 9
[2] Building level 10
[2] Building level 11
[3] Building level 9
[2] Building level 12
[2] Building level 13
[2] Building level 14
[3] Building level 10
[3] Building level 11
[3] Building level 12
[3] Building level 13
[3] Building level 14
GPU: 6 iters: 1.96549 s: 1.99778 GB/s
PCGAMG:  Solving for pd, Initial residual = 0.00106515, Final residual = 4.8663e-05, No Iterations 6
[3] Building level 0
[0] Building level 0
[2] Building level 0
[1] Building level 0
[3] Building level 1
[2] Building level 1
[0] Building level 1
[1] Building level 1
[2] Building level 2
[1] Building level 2
[3] Building level 2
[0] Building level 2
[2] Building level 3
[1] Building level 3
[0] Building level 3
[3] Building level 3
[1] Building level 4
[2] Building level 4
[0] Building level 4
[3] Building level 4
[1] Building level 5
[2] Building level 5
[0] Building level 5
[3] Building level 5
[1] Building level 6
[2] Building level 6
[0] Building level 6
[1] Building level 7
[3] Building level 6
[2] Building level 7
[1] Building level 8
[0] Building level 7
[1] Building level 9
[1] Building level 10
[2] Building level 8
[1] Building level 11
[1] Building level 12
[1] Building level 13
[1] Building level 14
[0] Building level 8
[2] Building level 9
[3] Building level 7
[2] Building level 10
[0] Building level 9
[2] Building level 11
[2] Building level 12
[2] Building level 13
[2] Building level 14
[0] Building level 10
[0] Building level 11
[0] Building level 12
[0] Building level 13
[0] Building level 14
14 Level construction complete
[3] Building level 8
[3] Building level 9
[3] Building level 10
[3] Building level 11
[3] Building level 12
[3] Building level 13
[3] Building level 14
GPU: 23 iters: 6.87608 s: 2.18905 GB/s
PCGAMG:  Solving for pd, Initial residual = 0.000469189, Final residual = 7.57684e-08, No Iterations 23
time step continuity errors : sum local = 3.50198e-12, global = -6.32635e-24, cumulative = -1.9841e-23
ExecutionTime = 550.98 s  ClockTime = 578 s

Courant Number mean: 3.97536e-05 max: 0.00903928 velocity magnitude: 0.140325
Time = 0.009

MULES: Solving for alpha1
Liquid phase volume fraction = 0.00275421  Min(alpha1) = -1.42196e-29  Max(alpha1) = 1
MULES: Solving for alpha1
Liquid phase volume fraction = 0.00275421  Min(alpha1) = -2.58746e-29  Max(alpha1) = 1
[3] Building level 0
[2] Building level 0
[0] Building level 0
[1] Building level 0
[0] Building level 1
Reconstruction on level 1
[3] Building level 1
[2] Building level 1
[1] Building level 1
[2] Building level 2
[2] Building level 3
Creating AMGLevel 
[1] Building level 2
[0] Building level 2
Reconstruction on level 2
[3] Building level 2
[2] Building level 4
[2] Building level 5
[1] Building level 3
Creating AMGLevel 
[3] Building level 3
[0] Building level 3
Reconstruction on level 3
[2] Building level 6
[2] Building level 7
[2] Building level 8
[2] Building level 9
[2] Building level 10
[2] Building level 11
[2] Building level 12
[2] Building level 13
[2] Building level 14
[1] Building level 4
[3] Building level 4
Creating AMGLevel 
[0] Building level 4
Reconstruction on level 4
[1] Building level 5
[3] Building level 5
Creating AMGLevel 
[0] Building level 5
Reconstruction on level 5
[1] Building level 6
[3] Building level 6
[1] Building level 7
Creating AMGLevel 
[0] Building level 6
Reconstruction on level 6
[1] Building level 8
[1] Building level 9
[3] Building level 7
[1] Building level 10
[1] Building level 11
[1] Building level 12
[1] Building level 13
[1] Building level 14
[3] Building level 8
Creating AMGLevel 
[0] Building level 7
Reconstruction on level 7
[3] Building level 9
[3] Building level 10
[3] Building level 11
[3] Building level 12
[3] Building level 13
Creating AMGLevel 
[3] Building level 14
[0] Building level 8
Reconstruction on level 8
Creating AMGLevel 
[0] Building level 9
Reconstruction on level 9
Creating AMGLevel 
[0] Building level 10
Reconstruction on level 10
Creating AMGLevel 
[0] Building level 11
Reconstruction on level 11
Creating AMGLevel 
[0] Building level 12
Reconstruction on level 12
Creating AMGLevel 
[0] Building level 13
Reconstruction on level 13
Creating AMGLevel 
[0] Building level 14
Reconstruction on level 14
Creating AMGLevel 
14 Level construction complete
GPU: 4 iters: 1.48618 s: 1.7614 GB/s
PCGAMG:  Solving for pd, Initial residual = 0.0024244, Final residual = 0.000101837, No Iterations 4
[2] Building level 0
[1] Building level 0
[0] Building level 0
[3] Building level 0
[3] Building level 1
[2] Building level 1
[0] Building level 1
[1] Building level 1
[2] Building level 2
[3] Building level 2
[0] Building level 2
[1] Building level 2
[2] Building level 3
[0] Building level 3
[1] Building level 3
[3] Building level 3
[1] Building level 4
[2] Building level 4
[0] Building level 4
[3] Building level 4
[1] Building level 5
[0] Building level 5
[2] Building level 5
[3] Building level 5
[1] Building level 6
[0] Building level 6
[2] Building level 6
[1] Building level 7
[3] Building level 6
[1] Building level 8
[0] Building level 7
[1] Building level 9
[2] Building level 7
[1] Building level 10
[1] Building level 11
[1] Building level 12
[1] Building level 13
[1] Building level 14
[3] Building level 7
[0] Building level 8
[2] Building level 8
[0] Building level 9
[0] Building level 10
[2] Building level 9
[3] Building level 8
[0] Building level 11
[0] Building level 12
[0] Building level 13
[2] Building level 10
[0] Building level 14
14 Level construction complete
[2] Building level 11
[2] Building level 12
[2] Building level 13
[3] Building level 9
[2] Building level 14
[3] Building level 10
[3] Building level 11
[3] Building level 12
[3] Building level 13
[3] Building level 14
GPU: 5 iters: 1.77029 s: 1.84839 GB/s
PCGAMG:  Solving for pd, Initial residual = 0.00102228, Final residual = 3.85341e-05, No Iterations 5
[1] Building level 0
[2] Building level 0
[0] Building level 0
[3] Building level 0
[3] Building level 1
[2] Building level 1
[1] Building level 1
[0] Building level 1
[2] Building level 2
[3] Building level 2
[1] Building level 2
[0] Building level 2
[2] Building level 3
[3] Building level 3
[1] Building level 3
[0] Building level 3
[1] Building level 4
[2] Building level 4
[3] Building level 4
[0] Building level 4
[1] Building level 5
[2] Building level 5
[3] Building level 5
[0] Building level 5
[1] Building level 6
[2] Building level 6
[3] Building level 6
[0] Building level 6
[1] Building level 7
[1] Building level 8
[2] Building level 7
[1] Building level 9
[3] Building level 7
[0] Building level 7
[1] Building level 10
[1] Building level 11
[1] Building level 12
[1] Building level 13
[1] Building level 14
[2] Building level 8
[2] Building level 9
[3] Building level 8
[0] Building level 8
[2] Building level 10
[2] Building level 11
[2] Building level 12
[2] Building level 13
[2] Building level 14
[3] Building level 9
[0] Building level 9
[3] Building level 10
[0] Building level 10
[3] Building level 11
[0] Building level 11
[3] Building level 12
[3] Building level 13
[3] Building level 14
[0] Building level 12
[0] Building level 13
[0] Building level 14
14 Level construction complete
GPU: 14 iters: 4.41409 s: 2.07566 GB/s
PCGAMG:  Solving for pd, Initial residual = 0.000368225, Final residual = 9.36556e-08, No Iterations 14
time step continuity errors : sum local = 4.31244e-12, global = 3.74917e-24, cumulative = -1.60918e-23
ExecutionTime = 607.26 s  ClockTime = 636 s

Courant Number mean: 4.49082e-05 max: 0.00972003 velocity magnitude: 0.149331
Time = 0.01

MULES: Solving for alpha1
Liquid phase volume fraction = 0.00275421  Min(alpha1) = -2.91311e-29  Max(alpha1) = 1
MULES: Solving for alpha1
Liquid phase volume fraction = 0.00275421  Min(alpha1) = -5.20932e-29  Max(alpha1) = 1
[0] Building level 0
[1] Building level 0
[3] Building level 0
[2] Building level 0
[0] Building level 1
Reconstruction on level 1
[3] Building level 1
[2] Building level 1
[1] Building level 1
[2] Building level 2
[2] Building level 3
[1] Building level 2
[3] Building level 2
Creating AMGLevel 
[0] Building level 2
Reconstruction on level 2
[2] Building level 4
[2] Building level 5
[1] Building level 3
[3] Building level 3
Creating AMGLevel 
[2] Building level 6
[0] Building level 3
Reconstruction on level 3
[2] Building level 7
[2] Building level 8
[2] Building level 9
[2] Building level 10
[2] Building level 11
[2] Building level 12
[2] Building level 13
[2] Building level 14
[1] Building level 4
[3] Building level 4
Creating AMGLevel 
[0] Building level 4
Reconstruction on level 4
[1] Building level 5
[3] Building level 5
[1] Building level 6
Creating AMGLevel 
[0] Building level 5
Reconstruction on level 5
[1] Building level 7
[3] Building level 6
[1] Building level 8
[1] Building level 9
[1] Building level 10
Creating AMGLevel 
[0] Building level 6
Reconstruction on level 6
[1] Building level 11
[1] Building level 12
[1] Building level 13
[3] Building level 7
[1] Building level 14
[3] Building level 8
[3] Building level 9
Creating AMGLevel 
[0] Building level 7
Reconstruction on level 7
[3] Building level 10
[3] Building level 11
[3] Building level 12
[3] Building level 13
[3] Building level 14
Creating AMGLevel 
[0] Building level 8
Reconstruction on level 8
Creating AMGLevel 
[0] Building level 9
Reconstruction on level 9
Creating AMGLevel 
[0] Building level 10
Reconstruction on level 10
Creating AMGLevel 
[0] Building level 11
Reconstruction on level 11
Creating AMGLevel 
[0] Building level 12
Reconstruction on level 12
Creating AMGLevel 
[0] Building level 13
Reconstruction on level 13
Creating AMGLevel 
[0] Building level 14
Reconstruction on level 14
Creating AMGLevel 
14 Level construction complete
GPU: 4 iters: 1.37959 s: 1.89748 GB/s
PCGAMG:  Solving for pd, Initial residual = 0.00258675, Final residual = 0.00010896, No Iterations 4
[1] Building level 0
[3] Building level 0
[2] Building level 0
[0] Building level 0
[2] Building level 1
[3] Building level 1
[0] Building level 1
[1] Building level 1
[0] Building level 2
[2] Building level 2
[3] Building level 2
[1] Building level 2
[0] Building level 3
[2] Building level 3
[3] Building level 3
[1] Building level 3
[0] Building level 4
[2] Building level 4
[1] Building level 4
[3] Building level 4
[0] Building level 5
[2] Building level 5
[1] Building level 5
[3] Building level 5
[0] Building level 6
[2] Building level 6
[1] Building level 6
[0] Building level 7
[3] Building level 6
[2] Building level 7
[0] Building level 8
[1] Building level 7
[2] Building level 8
[0] Building level 9
[0] Building level 10
[1] Building level 8
[0] Building level 11
[2] Building level 9
[0] Building level 12
[3] Building level 7
[0] Building level 13
[0] Building level 14
14 Level construction complete
[2] Building level 10
[2] Building level 11
[1] Building level 9
[2] Building level 12
[2] Building level 13
[2] Building level 14
[1] Building level 10
[1] Building level 11
[1] Building level 12
[3] Building level 8
[1] Building level 13
[1] Building level 14
[3] Building level 9
[3] Building level 10
[3] Building level 11
[3] Building level 12
[3] Building level 13
[3] Building level 14
GPU: 5 iters: 1.64403 s: 1.99035 GB/s
PCGAMG:  Solving for pd, Initial residual = 0.00101098, Final residual = 4.45987e-05, No Iterations 5
[2] Building level 0
[1] Building level 0
[3] Building level 0
[0] Building level 0
[3] Building level 1
[1] Building level 1
[2] Building level 1
[0] Building level 1
[2] Building level 2
[0] Building level 2
[3] Building level 2
[1] Building level 2
[2] Building level 3
[0] Building level 3
[3] Building level 3
[1] Building level 3
[2] Building level 4
[0] Building level 4
[1] Building level 4
[3] Building level 4
[0] Building level 5
[2] Building level 5
[1] Building level 5
[3] Building level 5
[0] Building level 6
[2] Building level 6
[1] Building level 6
[3] Building level 6
[0] Building level 7
[2] Building level 7
[1] Building level 7
[0] Building level 8
[2] Building level 8
[1] Building level 8
[3] Building level 7
[0] Building level 9
[2] Building level 9
[1] Building level 9
[0] Building level 10
[2] Building level 10
[0] Building level 11
[2] Building level 11
[0] Building level 12
[1] Building level 10
[0] Building level 13
[2] Building level 12
[0] Building level 14
14 Level construction complete
[2] Building level 13
[2] Building level 14
[1] Building level 11
[1] Building level 12
[1] Building level 13
[1] Building level 14
[3] Building level 8
[3] Building level 9
[3] Building level 10
[3] Building level 11
[3] Building level 12
[3] Building level 13
[3] Building level 14
GPU: 14 iters: 4.1189 s: 2.22441 GB/s
PCGAMG:  Solving for pd, Initial residual = 0.000326771, Final residual = 8.9477e-08, No Iterations 14
time step continuity errors : sum local = 4.10287e-12, global = 3.36715e-24, cumulative = -1.27246e-23
ExecutionTime = 663.98 s  ClockTime = 695 s

End

Finalising parallel run
