 Data for JOB [605,1] offset 0

 ========================   JOB MAP   ========================

 Data for node: ivb112	Num slots: 2	Max slots: 0	Num procs: 2
 	Process OMPI jobid: [605,1] App: 0 Process rank: 0
 	Process OMPI jobid: [605,1] App: 0 Process rank: 1

 Data for node: ivb113	Num slots: 2	Max slots: 0	Num procs: 2
 	Process OMPI jobid: [605,1] App: 0 Process rank: 2
 	Process OMPI jobid: [605,1] App: 0 Process rank: 3

 =============================================================
[ivb112:23979] MCW rank 1 bound to socket 0[core 1[hwt 0]]: [./B/./././././././.][./././././././././.]
[ivb112:23979] MCW rank 0 bound to socket 0[core 0[hwt 0]]: [B/././././././././.][./././././././././.]
[ivb113:09221] MCW rank 3 bound to socket 0[core 1[hwt 0]]: [./B/./././././././.][./././././././././.]
[ivb113:09221] MCW rank 2 bound to socket 0[core 0[hwt 0]]: [B/././././././././.][./././././././././.]
1
0
1
0
/*---------------------------------------------------------------------------*\
| =========                 |                                                 |
| \\      /  F ield         | foam-extend: Open Source CFD                    |
|  \\    /   O peration     | Version:     3.1                                |
|   \\  /    A nd           | Web:         http://www.extend-project.de       |
|    \\/     M anipulation  |                                                 |
\*---------------------------------------------------------------------------*/
Build    : 3.1-e2da948002a2
Exec     : pimpleDyMFoam -parallel
Date     : May 24 2016
Time     : 00:08:03
Host     : ivb112
PID      : 24007
CtrlDict : /home-2/vplatonov/foam/foam-extend-3.1/etc/controlDict
Case     : /home/vplatonov/tests/3D-mesh1-of3.1
nProcs   : 4
Slaves : 
3
(
ivb112.24009
ivb113.9245
ivb113.9243
)

Pstream initialized with:
    floatTransfer     : 0
    nProcsSimpleSum   : 0
    commsType         : blocking
SigFpe   : Enabling floating point exception trapping (FOAM_SIGFPE).

// * * * * * * * * * * * * * * * * * * * * * * * * * * * * * * * * * * * * * //
Create time

Create dynamic mesh for time = 0

Selecting dynamicFvMesh dynamicMotionSolverFvMesh
Selecting motion solver: displacementLaplacian
Selecting motion diffusion: quadratic
Selecting motion diffusion: inverseDistance
Reading field p

Reading field U

Reading/calculating face flux field phi

Selecting incompressible transport model Newtonian
Selecting turbulence model type LESModel
Selecting LES turbulence model oneEqEddy
oneEqEddyCoeffs
{
    ce              1.048;
    ck              0.094;
}

Reading field rAU if present


Starting time loop

Courant Number mean: 0 max: 0.0007592825 velocity magnitude: 0.4779
Reading old state
Before setting displacements
GAMGPCG:  Solving for cellDisplacementx, Initial residual = 0, Final residual = 0, No Iterations 0
GAMGPCG:  Solving for cellDisplacementy, Initial residual = 0, Final residual = 0, No Iterations 0
GAMGPCG:  Solving for cellDisplacementz, Initial residual = 0, Final residual = 0, No Iterations 0
Time = 5e-06

GAMGPCG:  Solving for cellDisplacementx, Initial residual = 0, Final residual = 0, No Iterations 0
GAMGPCG:  Solving for cellDisplacementy, Initial residual = 0, Final residual = 0, No Iterations 0
GAMGPCG:  Solving for cellDisplacementz, Initial residual = 0, Final residual = 0, No Iterations 0
volume continuity errors : volume = 4.535015, max error = 0, sum local = 0, global = 0
smoothSolver:  Solving for Ux, Initial residual = 1, Final residual = 9.457309e-09, No Iterations 1
smoothSolver:  Solving for Uy, Initial residual = 1, Final residual = 1.115892e-08, No Iterations 1
smoothSolver:  Solving for Uz, Initial residual = 0.9999962, Final residual = 4.021583e-08, No Iterations 1
Created persistent data with name p
Computing AINV with droptol 0.02
GPU: 888 iters: 15.96933 s: 81.54561 GB/s
SGPUPCG:  Solving for p, Initial residual = 1, Final residual = 0.009827539, No Iterations 888
Computing AINV with droptol 0.02
GPU: 163 iters: 3.084378 s: 77.49868 GB/s
SGPUPCG:  Solving for p, Initial residual = 0.0004703789, Final residual = 9.887168e-06, No Iterations 163
time step continuity errors : sum local = 2.226015e-09, global = 9.624135e-12, cumulative = 9.624135e-12
Moving mesh time step continuity errors : sum local = 2.226015e-09, global = 9.624135e-12, cumulative = 1.924827e-11
GPU: 174 iters: 3.294829 s: 77.44451 GB/s
SGPUPCG:  Solving for p, Initial residual = 0.0001097229, Final residual = 9.979832e-06, No Iterations 174
GPU: 781 iters: 14.61156 s: 78.38421 GB/s
SGPUPCG:  Solving for p, Initial residual = 4.681563e-05, Final residual = 9.762295e-08, No Iterations 781
time step continuity errors : sum local = 2.199009e-11, global = -1.09517e-13, cumulative = 1.913875e-11
Moving mesh time step continuity errors : sum local = 2.199009e-11, global = -1.09517e-13, cumulative = 1.902924e-11
smoothSolver:  Solving for k, Initial residual = 1, Final residual = 1.495208e-11, No Iterations 2
ExecutionTime = 176.92 s  ClockTime = 179 s

Courant Number mean: 7.684085e-05 max: 0.002865091 velocity magnitude: 0.9550994
yForce = -0.8974696
Y= -1.38559e-12
Vy= -5.542358e-07
Time = 1e-05

GAMGPCG:  Solving for cellDisplacementx, Initial residual = 0, Final residual = 0, No Iterations 0
GAMGPCG:  Solving for cellDisplacementy, Initial residual = 1, Final residual = 1.450815e-09, No Iterations 1
GAMGPCG:  Solving for cellDisplacementz, Initial residual = 0, Final residual = 0, No Iterations 0
volume continuity errors : volume = 4.535015, max error = 9.879199e-09, sum local = 5.773165e-15, global = 6.114802e-19
smoothSolver:  Solving for Ux, Initial residual = 0.9975511, Final residual = 5.468357e-07, No Iterations 1
smoothSolver:  Solving for Uy, Initial residual = 0.333327, Final residual = 1.328043e-06, No Iterations 1
smoothSolver:  Solving for Uz, Initial residual = 0.3326485, Final residual = 7.228535e-07, No Iterations 1
GPU: 902 iters: 16.89269 s: 78.30365 GB/s
SGPUPCG:  Solving for p, Initial residual = 0.003643798, Final residual = 3.510658e-05, No Iterations 902
GPU: 242 iters: 4.555757 s: 77.8985 GB/s
SGPUPCG:  Solving for p, Initial residual = 0.001403024, Final residual = 1.400857e-05, No Iterations 242
time step continuity errors : sum local = 1.052979e-09, global = -4.428719e-13, cumulative = 1.858636e-11
Moving mesh time step continuity errors : sum local = 1.052979e-09, global = -4.428719e-13, cumulative = 1.814349e-11
GPU: 354 iters: 6.638539 s: 78.19969 GB/s
SGPUPCG:  Solving for p, Initial residual = 0.0003137245, Final residual = 9.979455e-06, No Iterations 354
GPU: 808 iters: 15.12576 s: 78.33725 GB/s
SGPUPCG:  Solving for p, Initial residual = 0.0001188024, Final residual = 9.972129e-08, No Iterations 808
time step continuity errors : sum local = 7.487919e-12, global = -3.008321e-14, cumulative = 1.811341e-11
Moving mesh time step continuity errors : sum local = 7.487919e-12, global = -3.008321e-14, cumulative = 1.808333e-11
smoothSolver:  Solving for k, Initial residual = 0.008780187, Final residual = 3.634678e-09, No Iterations 1
ExecutionTime = 262.26 s  ClockTime = 265 s

Courant Number mean: 7.684303e-05 max: 0.00285692 velocity magnitude: 0.9523756
yForce = 1.844824
Y= -1.30857e-12
Vy= 5.850433e-07
Time = 1.5e-05

GAMGPCG:  Solving for cellDisplacementx, Initial residual = 0, Final residual = 0, No Iterations 0
GAMGPCG:  Solving for cellDisplacementy, Initial residual = 0.07088815, Final residual = 1.468712e-09, No Iterations 1
GAMGPCG:  Solving for cellDisplacementz, Initial residual = 0, Final residual = 0, No Iterations 0
volume continuity errors : volume = 4.535015, max error = 9.240499e-09, sum local = 6.361461e-15, global = -1.022855e-17
smoothSolver:  Solving for Ux, Initial residual = 0.9921627, Final residual = 5.446705e-07, No Iterations 1
smoothSolver:  Solving for Uy, Initial residual = 0.1847833, Final residual = 8.091407e-07, No Iterations 1
smoothSolver:  Solving for Uz, Initial residual = 0.7564945, Final residual = 1.43939e-06, No Iterations 1
GPU: 898 iters: 16.9209 s: 77.82642 GB/s
SGPUPCG:  Solving for p, Initial residual = 0.002800723, Final residual = 2.767701e-05, No Iterations 898
GPU: 237 iters: 4.482005 s: 77.54437 GB/s
SGPUPCG:  Solving for p, Initial residual = 0.09907234, Final residual = 0.0009895221, No Iterations 237
time step continuity errors : sum local = 3.45778e-10, global = 3.078773e-13, cumulative = 1.83912e-11
Moving mesh time step continuity errors : sum local = 3.45778e-10, global = 3.078773e-13, cumulative = 1.869908e-11
GPU: 502 iters: 9.467454 s: 77.75794 GB/s
SGPUPCG:  Solving for p, Initial residual = 0.02243143, Final residual = 0.0002237554, No Iterations 502
GPU: 1000 iters: 18.79904 s: 78.0079 GB/s
SGPUPCG:  Solving for p, Initial residual = 0.007543784, Final residual = 1.163825e-07, No Iterations 1000
time step continuity errors : sum local = 3.694807e-14, global = -4.903177e-17, cumulative = 1.869903e-11
Moving mesh time step continuity errors : sum local = 3.694807e-14, global = -4.903177e-17, cumulative = 1.869898e-11
smoothSolver:  Solving for k, Initial residual = 0.003835058, Final residual = 1.512651e-09, No Iterations 1
ExecutionTime = 353.43 s  ClockTime = 356 s

Courant Number mean: 7.684352e-05 max: 0.002858857 velocity magnitude: 0.9530212
yForce = -0.5966409
Y= 6.954991e-13
Vy= 2.165845e-07
Time = 2e-05

GAMGPCG:  Solving for cellDisplacementx, Initial residual = 0, Final residual = 0, No Iterations 0
GAMGPCG:  Solving for cellDisplacementy, Initial residual = 1, Final residual = 1.396159e-09, No Iterations 1
GAMGPCG:  Solving for cellDisplacementz, Initial residual = 0, Final residual = 0, No Iterations 0
volume continuity errors : volume = 4.535015, max error = 1.185319e-08, sum local = 6.283676e-15, global = 3.794852e-18
smoothSolver:  Solving for Ux, Initial residual = 0.05066749, Final residual = 5.020369e-08, No Iterations 1
smoothSolver:  Solving for Uy, Initial residual = 0.01319858, Final residual = 8.927021e-08, No Iterations 1
smoothSolver:  Solving for Uz, Initial residual = 0.9149266, Final residual = 1.796273e-06, No Iterations 1
GPU: 114 iters: 2.181659 s: 76.62882 GB/s
SGPUPCG:  Solving for p, Initial residual = 0.2265799, Final residual = 0.002224905, No Iterations 114
GPU: 422 iters: 7.952971 s: 77.81392 GB/s
SGPUPCG:  Solving for p, Initial residual = 0.01252791, Final residual = 0.000123981, No Iterations 422
time step continuity errors : sum local = 3.344727e-11, global = -3.513184e-12, cumulative = 1.51858e-11
Moving mesh time step continuity errors : sum local = 3.344727e-11, global = -3.513184e-12, cumulative = 1.167262e-11
GPU: 625 iters: 11.77843 s: 77.81565 GB/s
SGPUPCG:  Solving for p, Initial residual = 0.004239285, Final residual = 4.188182e-05, No Iterations 625
GPU: 863 iters: 16.24341 s: 77.91261 GB/s
SGPUPCG:  Solving for p, Initial residual = 0.001800991, Final residual = 9.76304e-08, No Iterations 863
time step continuity errors : sum local = 2.618163e-14, global = 8.086487e-17, cumulative = 1.16727e-11
Moving mesh time step continuity errors : sum local = 2.618163e-14, global = 8.086487e-17, cumulative = 1.167278e-11
smoothSolver:  Solving for k, Initial residual = 0.002273123, Final residual = 8.911631e-10, No Iterations 1
ExecutionTime = 432.59 s  ClockTime = 436 s

Courant Number mean: 7.684408e-05 max: 0.002856742 velocity magnitude: 0.9523163
yForce = -0.09448357
Y= 1.632549e-12
Vy= 1.582355e-07
Time = 2.5e-05

GAMGPCG:  Solving for cellDisplacementx, Initial residual = 0, Final residual = 0, No Iterations 0
GAMGPCG:  Solving for cellDisplacementy, Initial residual = 0.5596701, Final residual = 1.607949e-09, No Iterations 1
GAMGPCG:  Solving for cellDisplacementz, Initial residual = 0, Final residual = 0, No Iterations 0
volume continuity errors : volume = 4.535015, max error = 1.226562e-08, sum local = 6.481824e-15, global = 1.882091e-18
smoothSolver:  Solving for Ux, Initial residual = 0.0270726, Final residual = 1.788453e-08, No Iterations 1
smoothSolver:  Solving for Uy, Initial residual = 0.004555695, Final residual = 3.135384e-08, No Iterations 1
smoothSolver:  Solving for Uz, Initial residual = 0.7361162, Final residual = 1.920682e-06, No Iterations 1
GPU: 35 iters: 0.6974586 s: 73.59086 GB/s
SGPUPCG:  Solving for p, Initial residual = 0.1533823, Final residual = 0.001478371, No Iterations 35
GPU: 481 iters: 9.072985 s: 77.7444 GB/s
SGPUPCG:  Solving for p, Initial residual = 0.003911298, Final residual = 3.89247e-05, No Iterations 481
time step continuity errors : sum local = 9.255756e-12, global = 8.497646e-13, cumulative = 1.252254e-11
Moving mesh time step continuity errors : sum local = 9.255756e-12, global = 8.497646e-13, cumulative = 1.337231e-11
GPU: 635 iters: 11.95486 s: 77.89392 GB/s
SGPUPCG:  Solving for p, Initial residual = 0.001010708, Final residual = 9.962798e-06, No Iterations 635
GPU: 814 iters: 15.32842 s: 77.87557 GB/s
SGPUPCG:  Solving for p, Initial residual = 0.0003983376, Final residual = 9.944942e-08, No Iterations 814
time step continuity errors : sum local = 2.356842e-14, global = -4.925588e-17, cumulative = 1.337226e-11
Moving mesh time step continuity errors : sum local = 2.356842e-14, global = -4.925588e-17, cumulative = 1.337221e-11
smoothSolver:  Solving for k, Initial residual = 0.001554791, Final residual = 6.189781e-10, No Iterations 1
ExecutionTime = 510.56 s  ClockTime = 514 s

Courant Number mean: 7.684421e-05 max: 0.002854608 velocity magnitude: 0.9516049
yForce = 0.2335915
Y= 2.784364e-12
Vy= 3.024906e-07
Time = 3e-05

GAMGPCG:  Solving for cellDisplacementx, Initial residual = 0, Final residual = 0, No Iterations 0
GAMGPCG:  Solving for cellDisplacementy, Initial residual = 0.4863919, Final residual = 6.224709e-10, No Iterations 1
GAMGPCG:  Solving for cellDisplacementz, Initial residual = 0, Final residual = 0, No Iterations 0
volume continuity errors : volume = 4.535015, max error = 9.82603e-09, sum local = 6.591633e-15, global = 2.486e-19
smoothSolver:  Solving for Ux, Initial residual = 0.01761465, Final residual = 8.841912e-09, No Iterations 1
smoothSolver:  Solving for Uy, Initial residual = 0.001237646, Final residual = 1.695756e-08, No Iterations 1
smoothSolver:  Solving for Uz, Initial residual = 0.268653, Final residual = 1.600739e-06, No Iterations 1
GPU: 5 iters: 0.1353929 s: 54.15621 GB/s
SGPUPCG:  Solving for p, Initial residual = 0.1088627, Final residual = 0.0008523281, No Iterations 5
GPU: 179 iters: 3.384699 s: 77.55453 GB/s
SGPUPCG:  Solving for p, Initial residual = 0.001575515, Final residual = 1.563703e-05, No Iterations 179
time step continuity errors : sum local = 3.354645e-12, global = -1.176651e-16, cumulative = 1.337209e-11
Moving mesh time step continuity errors : sum local = 3.354645e-12, global = -1.176651e-16, cumulative = 1.337197e-11
GPU: 36 iters: 0.7112449 s: 74.22626 GB/s
SGPUPCG:  Solving for p, Initial residual = 0.0002998884, Final residual = 9.689153e-06, No Iterations 36
GPU: 789 iters: 14.77257 s: 78.32407 GB/s
SGPUPCG:  Solving for p, Initial residual = 0.0001178989, Final residual = 9.985765e-08, No Iterations 789
time step continuity errors : sum local = 2.141352e-14, global = -1.153896e-16, cumulative = 1.337186e-11
Moving mesh time step continuity errors : sum local = 2.141352e-14, global = -1.153896e-16, cumulative = 1.337174e-11
smoothSolver:  Solving for k, Initial residual = 0.001156911, Final residual = 4.665121e-10, No Iterations 1
ExecutionTime = 571.33 s  ClockTime = 575 s

Courant Number mean: 7.684431e-05 max: 0.002852247 velocity magnitude: 0.9508176
yForce = -0.1219009
Y= 4.108615e-12
Vy= 2.272098e-07
Time = 3.5e-05

GAMGPCG:  Solving for cellDisplacementx, Initial residual = 0, Final residual = 0, No Iterations 0
GAMGPCG:  Solving for cellDisplacementy, Initial residual = 0.3891401, Final residual = 6.273968e-10, No Iterations 1
GAMGPCG:  Solving for cellDisplacementz, Initial residual = 0, Final residual = 0, No Iterations 0
volume continuity errors : volume = 4.535015, max error = 1.064125e-08, sum local = 6.635738e-15, global = -3.184604e-19
smoothSolver:  Solving for Ux, Initial residual = 0.01352744, Final residual = 6.756769e-09, No Iterations 1
smoothSolver:  Solving for Uy, Initial residual = 0.0009592052, Final residual = 1.255595e-08, No Iterations 1
smoothSolver:  Solving for Uz, Initial residual = 0.1935914, Final residual = 1.298333e-06, No Iterations 1
GPU: 3 iters: 0.09624035 s: 45.71285 GB/s
SGPUPCG:  Solving for p, Initial residual = 0.09114931, Final residual = 0.0007130781, No Iterations 3
GPU: 135 iters: 2.568819 s: 77.06809 GB/s
SGPUPCG:  Solving for p, Initial residual = 0.0008944964, Final residual = 9.954189e-06, No Iterations 135
time step continuity errors : sum local = 1.961101e-12, global = 4.563739e-17, cumulative = 1.337179e-11
Moving mesh time step continuity errors : sum local = 1.961101e-12, global = 4.563739e-17, cumulative = 1.337183e-11
GPU: 35 iters: 0.6982148 s: 73.51115 GB/s
SGPUPCG:  Solving for p, Initial residual = 9.216562e-05, Final residual = 9.683885e-06, No Iterations 35
GPU: 774 iters: 14.58368 s: 77.8302 GB/s
SGPUPCG:  Solving for p, Initial residual = 3.315182e-05, Final residual = 9.903454e-08, No Iterations 774
time step continuity errors : sum local = 1.950574e-14, global = 2.034619e-17, cumulative = 1.337185e-11
Moving mesh time step continuity errors : sum local = 1.950574e-14, global = 2.034619e-17, cumulative = 1.337187e-11
smoothSolver:  Solving for k, Initial residual = 0.000909741, Final residual = 3.836198e-10, No Iterations 1
ExecutionTime = 630.97 s  ClockTime = 635 s

Courant Number mean: 7.684436e-05 max: 0.002849501 velocity magnitude: 0.9499024
yForce = -0.003156924
Y= 5.239789e-12
Vy= 2.252599e-07
Time = 4e-05

GAMGPCG:  Solving for cellDisplacementx, Initial residual = 0, Final residual = 0, No Iterations 0
GAMGPCG:  Solving for cellDisplacementy, Initial residual = 0.2798505, Final residual = 4.366778e-10, No Iterations 1
GAMGPCG:  Solving for cellDisplacementz, Initial residual = 0, Final residual = 0, No Iterations 0
volume continuity errors : volume = 4.535015, max error = 1.0433e-08, sum local = 6.685914e-15, global = 1.397675e-18
smoothSolver:  Solving for Ux, Initial residual = 0.01095196, Final residual = 5.434565e-09, No Iterations 1
smoothSolver:  Solving for Uy, Initial residual = 0.0008076011, Final residual = 9.989493e-09, No Iterations 1
smoothSolver:  Solving for Uz, Initial residual = 0.1783863, Final residual = 1.232373e-06, No Iterations 1
GPU: 3 iters: 0.09742304 s: 45.15791 GB/s
SGPUPCG:  Solving for p, Initial residual = 0.07497268, Final residual = 0.0003261864, No Iterations 3
GPU: 53 iters: 1.03555 s: 75.05491 GB/s
SGPUPCG:  Solving for p, Initial residual = 0.0004719754, Final residual = 9.726419e-06, No Iterations 53
time step continuity errors : sum local = 1.780068e-12, global = -3.798635e-17, cumulative = 1.337184e-11
Moving mesh time step continuity errors : sum local = 1.780068e-12, global = -3.798635e-17, cumulative = 1.33718e-11
GPU: 6 iters: 0.1535013 s: 57.32094 GB/s
SGPUPCG:  Solving for p, Initial residual = 3.896014e-05, Final residual = 9.027031e-06, No Iterations 6
GPU: 737 iters: 13.85663 s: 77.99814 GB/s
SGPUPCG:  Solving for p, Initial residual = 1.512988e-05, Final residual = 9.918664e-08, No Iterations 737
time step continuity errors : sum local = 1.815065e-14, global = -1.790875e-16, cumulative = 1.337162e-11
Moving mesh time step continuity errors : sum local = 1.815065e-14, global = -1.790875e-16, cumulative = 1.337144e-11
smoothSolver:  Solving for k, Initial residual = 0.0007436917, Final residual = 3.250384e-10, No Iterations 1
ExecutionTime = 686.89 s  ClockTime = 691 s

Courant Number mean: 7.684438e-05 max: 0.002846381 velocity magnitude: 0.9488623
yForce = 0.04227269
Y= 6.431352e-12
Vy= 2.513652e-07
Time = 4.5e-05

GAMGPCG:  Solving for cellDisplacementx, Initial residual = 0, Final residual = 0, No Iterations 0
GAMGPCG:  Solving for cellDisplacementy, Initial residual = 0.2460323, Final residual = 3.367156e-10, No Iterations 1
GAMGPCG:  Solving for cellDisplacementz, Initial residual = 0, Final residual = 0, No Iterations 0
volume continuity errors : volume = 4.535015, max error = 8.935295e-09, sum local = 6.70346e-15, global = 5.361603e-18
smoothSolver:  Solving for Ux, Initial residual = 0.009356418, Final residual = 4.558707e-09, No Iterations 1
smoothSolver:  Solving for Uy, Initial residual = 0.0006791193, Final residual = 8.215649e-09, No Iterations 1
smoothSolver:  Solving for Uz, Initial residual = 0.1606356, Final residual = 1.055184e-06, No Iterations 1
GPU: 3 iters: 0.09695238 s: 45.37713 GB/s
SGPUPCG:  Solving for p, Initial residual = 0.06276941, Final residual = 0.0002642843, No Iterations 3
GPU: 24 iters: 0.4911413 s: 71.66037 GB/s
SGPUPCG:  Solving for p, Initial residual = 0.0003714745, Final residual = 9.476059e-06, No Iterations 24
time step continuity errors : sum local = 1.625163e-12, global = -3.491578e-16, cumulative = 1.337109e-11
Moving mesh time step continuity errors : sum local = 1.625163e-12, global = -3.491578e-16, cumulative = 1.337074e-11
GPU: 1 iters: 0.05990803 s: 24.47875 GB/s
SGPUPCG:  Solving for p, Initial residual = 2.500498e-05, Final residual = 9.567082e-06, No Iterations 1
GPU: 504 iters: 9.502425 s: 77.78043 GB/s
SGPUPCG:  Solving for p, Initial residual = 1.071902e-05, Final residual = 9.985991e-08, No Iterations 504
time step continuity errors : sum local = 1.712522e-14, global = 1.687685e-15, cumulative = 1.337243e-11
Moving mesh time step continuity errors : sum local = 1.712522e-14, global = 1.687685e-15, cumulative = 1.337412e-11
smoothSolver:  Solving for k, Initial residual = 0.0006255961, Final residual = 2.837578e-10, No Iterations 1
ExecutionTime = 738.38 s  ClockTime = 743 s

Courant Number mean: 7.684437e-05 max: 0.00284288 velocity magnitude: 0.9482452
yForce = -0.02451527
Y= 7.650328e-12
Vy= 2.362253e-07
Time = 5e-05

GAMGPCG:  Solving for cellDisplacementx, Initial residual = 0, Final residual = 0, No Iterations 0
GAMGPCG:  Solving for cellDisplacementy, Initial residual = 0.2153586, Final residual = 3.058835e-10, No Iterations 1
GAMGPCG:  Solving for cellDisplacementz, Initial residual = 0, Final residual = 0, No Iterations 0
volume continuity errors : volume = 4.535015, max error = 1.052963e-08, sum local = 6.720809e-15, global = 2.386083e-18
smoothSolver:  Solving for Ux, Initial residual = 0.008276637, Final residual = 3.93134e-09, No Iterations 1
smoothSolver:  Solving for Uy, Initial residual = 0.0005943326, Final residual = 6.911592e-09, No Iterations 1
smoothSolver:  Solving for Uz, Initial residual = 0.1133014, Final residual = 7.338686e-07, No Iterations 1
GPU: 3 iters: 0.09616064 s: 45.75075 GB/s
SGPUPCG:  Solving for p, Initial residual = 0.05636348, Final residual = 0.000222587, No Iterations 3
GPU: 19 iters: 0.3982983 s: 69.9551 GB/s
SGPUPCG:  Solving for p, Initial residual = 0.0003066726, Final residual = 9.637932e-06, No Iterations 19
time step continuity errors : sum local = 1.55962e-12, global = 4.275182e-15, cumulative = 1.337839e-11
Moving mesh time step continuity errors : sum local = 1.55962e-12, global = 4.275182e-15, cumulative = 1.338267e-11
GPU: 1 iters: 0.05955273 s: 24.62479 GB/s
SGPUPCG:  Solving for p, Initial residual = 2.075745e-05, Final residual = 9.002966e-06, No Iterations 1
GPU: 724 iters: 13.63114 s: 77.8898 GB/s
SGPUPCG:  Solving for p, Initial residual = 9.644189e-06, Final residual = 9.799625e-08, No Iterations 724
time step continuity errors : sum local = 1.58574e-14, global = -1.532328e-16, cumulative = 1.338251e-11
Moving mesh time step continuity errors : sum local = 1.58574e-14, global = -1.532328e-16, cumulative = 1.338236e-11
smoothSolver:  Solving for k, Initial residual = 0.0005378835, Final residual = 2.535516e-10, No Iterations 1
ExecutionTime = 794.35 s  ClockTime = 799 s

yForce = 0.001742744
Y= 8.834144e-12
Vy= 2.373012e-07
End

Finalising parallel run
