 Data for JOB [38729,1] offset 0

 ========================   JOB MAP   ========================

 Data for node: ivb106	Num slots: 4	Max slots: 0	Num procs: 4
 	Process OMPI jobid: [38729,1] App: 0 Process rank: 0
 	Process OMPI jobid: [38729,1] App: 0 Process rank: 1
 	Process OMPI jobid: [38729,1] App: 0 Process rank: 2
 	Process OMPI jobid: [38729,1] App: 0 Process rank: 3

 =============================================================
[ivb106:07387] MCW rank 2 bound to socket 0[core 2[hwt 0]]: [././B/././././././.][./././././././././.]
[ivb106:07387] MCW rank 3 bound to socket 0[core 3[hwt 0]]: [./././B/./././././.][./././././././././.]
[ivb106:07387] MCW rank 0 bound to socket 0[core 0[hwt 0]]: [B/././././././././.][./././././././././.]
[ivb106:07387] MCW rank 1 bound to socket 0[core 1[hwt 0]]: [./B/./././././././.][./././././././././.]
0
1
2
3
/*---------------------------------------------------------------------------*\
| =========                 |                                                 |
| \\      /  F ield         | foam-extend: Open Source CFD                    |
|  \\    /   O peration     | Version:     3.1                                |
|   \\  /    A nd           | Web:         http://www.extend-project.de       |
|    \\/     M anipulation  |                                                 |
\*---------------------------------------------------------------------------*/
Build    : 3.1-e2da948002a2
Exec     : interFoam -parallel
Date     : May 18 2016
Time     : 09:29:30
Host     : ivb106
PID      : 7420
CtrlDict : /home-2/vplatonov/foam/foam-extend-3.1/etc/controlDict
Case     : /home/vplatonov/tests/rt12mln
nProcs   : 4
Slaves : 
3
(
ivb106.7431
ivb106.7426
ivb106.7419
)

Pstream initialized with:
    floatTransfer     : 0
    nProcsSimpleSum   : 0
    commsType         : blocking
SigFpe   : Enabling floating point exception trapping (FOAM_SIGFPE).

// * * * * * * * * * * * * * * * * * * * * * * * * * * * * * * * * * * * * * //
Create time

Create mesh for time = 0


Reading g
Reading field pd

Reading field alpha1

Reading field U

Reading/calculating face flux field phi

Reading transportProperties

Selecting incompressible transport model Newtonian
Selecting incompressible transport model Newtonian
Calculating field g.h

Selecting turbulence model type laminar
time step continuity errors : sum local = 0, global = 0, cumulative = 0
Created persistent data with name pcorr
GPUBICGS:  Solving for pcorr, Initial residual = 0, Final residual = 0, No Iterations 0
time step continuity errors : sum local = 0, global = 0, cumulative = 0
Courant Number mean: 0 max: 0 velocity magnitude: 0

Starting time loop

Courant Number mean: 0 max: 0 velocity magnitude: 0
Time = 0.001

MULES: Solving for alpha1
Liquid phase volume fraction = 0.00275421  Min(alpha1) = 0  Max(alpha1) = 1
MULES: Solving for alpha1
Liquid phase volume fraction = 0.00275421  Min(alpha1) = 0  Max(alpha1) = 1
Created persistent data with name pd
Computing AINV with droptol 0.02
GPU: 2 iters: 0.0688052 s: 38.8916 GB/s
Total exec time 0.0688052
 Total comm time 0.000166464Pre time 0.000150048 Post time 1.6416e-05
GPUBICGS:  Solving for pd, Initial residual = 1, Final residual = 0.048381, No Iterations 2
Computing AINV with droptol 0.02
GPU: 30 iters: 0.764348 s: 52.5142 GB/s
Total exec time 0.833153
 Total comm time 0.0016743Pre time 0.00146403 Post time 0.000210272
GPUBICGS:  Solving for pd, Initial residual = 0.0328058, Final residual = 0.00134775, No Iterations 30
GPU: 621 iters: 15.4875 s: 53.6486 GB/s
Total exec time 16.3206
 Total comm time 0.0328007Pre time 0.0286546 Post time 0.00414605
GPUBICGS:  Solving for pd, Initial residual = 0.0125474, Final residual = 8.44542e-08, No Iterations 621
time step continuity errors : sum local = 7.39783e-12, global = -1.35661e-24, cumulative = -1.35661e-24
ExecutionTime = 128.06 s  ClockTime = 136 s

Courant Number mean: 4.85833e-06 max: 0.00215161 velocity magnitude: 0.0336189
Time = 0.002

MULES: Solving for alpha1
Liquid phase volume fraction = 0.00275421  Min(alpha1) = 0  Max(alpha1) = 1
MULES: Solving for alpha1
Liquid phase volume fraction = 0.00275421  Min(alpha1) = 0  Max(alpha1) = 1
GPU: 48 iters: 1.21396 s: 52.9033 GB/s
Total exec time 17.5346
 Total comm time 0.035181Pre time 0.0307282 Post time 0.00445286
GPUBICGS:  Solving for pd, Initial residual = 0.00383312, Final residual = 0.000172273, No Iterations 48
GPU: 104 iters: 2.59435 s: 53.6354 GB/s
Total exec time 20.1289
 Total comm time 0.0404114Pre time 0.0353012 Post time 0.00511018
GPUBICGS:  Solving for pd, Initial residual = 0.00219871, Final residual = 0.000106238, No Iterations 104
GPU: 585 iters: 14.596 s: 53.6254 GB/s
Total exec time 34.7249
 Total comm time 0.0690406Pre time 0.060235 Post time 0.00880554
GPUBICGS:  Solving for pd, Initial residual = 0.00197034, Final residual = 9.96366e-08, No Iterations 585
time step continuity errors : sum local = 6.97868e-12, global = -2.01694e-24, cumulative = -3.37355e-24
ExecutionTime = 178.08 s  ClockTime = 186 s

Courant Number mean: 7.65519e-06 max: 0.00312326 velocity magnitude: 0.048801
Time = 0.003

MULES: Solving for alpha1
Liquid phase volume fraction = 0.00275421  Min(alpha1) = -7.55334e-31  Max(alpha1) = 1
MULES: Solving for alpha1
Liquid phase volume fraction = 0.00275421  Min(alpha1) = -1.28424e-30  Max(alpha1) = 1
GPU: 80 iters: 2.00791 s: 53.3079 GB/s
Total exec time 36.7328
 Total comm time 0.072908Pre time 0.0635924 Post time 0.00931565
GPUBICGS:  Solving for pd, Initial residual = 0.00425002, Final residual = 0.000211831, No Iterations 80
GPU: 64 iters: 1.60761 s: 53.2654 GB/s
Total exec time 38.3404
 Total comm time 0.0759682Pre time 0.0662454 Post time 0.00972282
GPUBICGS:  Solving for pd, Initial residual = 0.0031568, Final residual = 0.000157666, No Iterations 64
GPU: 559 iters: 13.8939 s: 53.8313 GB/s
Total exec time 52.2343
 Total comm time 0.104289Pre time 0.0904278 Post time 0.0138608
GPUBICGS:  Solving for pd, Initial residual = 0.00264883, Final residual = 9.02955e-08, No Iterations 559
time step continuity errors : sum local = 7.03901e-12, global = 2.13164e-24, cumulative = -1.24191e-24
ExecutionTime = 227.08 s  ClockTime = 236 s

Courant Number mean: 1.35498e-05 max: 0.00481455 velocity magnitude: 0.0752273
Time = 0.004

MULES: Solving for alpha1
Liquid phase volume fraction = 0.00275421  Min(alpha1) = -5.0085e-30  Max(alpha1) = 1
MULES: Solving for alpha1
Liquid phase volume fraction = 0.00275421  Min(alpha1) = -1.32365e-29  Max(alpha1) = 1
GPU: 52 iters: 1.30569 s: 53.2858 GB/s
Total exec time 53.54
 Total comm time 0.106955Pre time 0.0927618 Post time 0.0141932
GPUBICGS:  Solving for pd, Initial residual = 0.0034338, Final residual = 0.000168615, No Iterations 52
GPU: 64 iters: 1.60459 s: 53.3658 GB/s
Total exec time 55.1446
 Total comm time 0.110175Pre time 0.0955744 Post time 0.0146006
GPUBICGS:  Solving for pd, Initial residual = 0.00328061, Final residual = 0.000162743, No Iterations 64
GPU: 608 iters: 15.1678 s: 53.6324 GB/s
Total exec time 70.3124
 Total comm time 0.140335Pre time 0.121892 Post time 0.0184438
GPUBICGS:  Solving for pd, Initial residual = 0.00251771, Final residual = 1.04934e-08, No Iterations 608
time step continuity errors : sum local = 9.63775e-13, global = 8.95492e-25, cumulative = -3.46416e-25
ExecutionTime = 276.47 s  ClockTime = 285 s

Courant Number mean: 1.92253e-05 max: 0.00596556 velocity magnitude: 0.0932119
Time = 0.005

MULES: Solving for alpha1
Liquid phase volume fraction = 0.00275421  Min(alpha1) = -1.05277e-29  Max(alpha1) = 1
MULES: Solving for alpha1
Liquid phase volume fraction = 0.00275421  Min(alpha1) = -1.66375e-29  Max(alpha1) = 1
GPU: 90 iters: 2.25826 s: 53.3232 GB/s
Total exec time 72.5706
 Total comm time 0.144814Pre time 0.125799 Post time 0.0190148
GPUBICGS:  Solving for pd, Initial residual = 0.00218124, Final residual = 0.000108653, No Iterations 90
GPU: 67 iters: 1.68726 s: 53.1301 GB/s
Total exec time 74.2579
 Total comm time 0.148171Pre time 0.12873 Post time 0.0194413
GPUBICGS:  Solving for pd, Initial residual = 0.00182914, Final residual = 9.03172e-05, No Iterations 67
GPU: 598 iters: 14.921 s: 53.623 GB/s
Total exec time 89.1788
 Total comm time 0.177073Pre time 0.153856 Post time 0.0232163
GPUBICGS:  Solving for pd, Initial residual = 0.00145651, Final residual = 9.74797e-08, No Iterations 598
time step continuity errors : sum local = 8.03904e-12, global = -5.48862e-24, cumulative = -5.83504e-24
ExecutionTime = 326.88 s  ClockTime = 336 s

Courant Number mean: 2.43655e-05 max: 0.0068259 velocity magnitude: 0.106655
Time = 0.006

MULES: Solving for alpha1
Liquid phase volume fraction = 0.00275421  Min(alpha1) = -2.91039e-29  Max(alpha1) = 1
MULES: Solving for alpha1
Liquid phase volume fraction = 0.00275421  Min(alpha1) = -3.35333e-29  Max(alpha1) = 1
GPU: 92 iters: 2.29863 s: 53.5509 GB/s
Total exec time 91.4775
 Total comm time 0.181799Pre time 0.158004 Post time 0.0237946
GPUBICGS:  Solving for pd, Initial residual = 0.00226113, Final residual = 0.000111199, No Iterations 92
GPU: 72 iters: 1.80968 s: 53.2325 GB/s
Total exec time 93.2871
 Total comm time 0.185415Pre time 0.161161 Post time 0.0242539
GPUBICGS:  Solving for pd, Initial residual = 0.0012238, Final residual = 5.88026e-05, No Iterations 72
GPU: 570 iters: 14.2146 s: 53.6521 GB/s
Total exec time 107.502
 Total comm time 0.214871Pre time 0.18693 Post time 0.0279408
GPUBICGS:  Solving for pd, Initial residual = 0.000730822, Final residual = 7.92014e-08, No Iterations 570
time step continuity errors : sum local = 3.86537e-12, global = -4.63652e-24, cumulative = -1.04716e-23
ExecutionTime = 376.89 s  ClockTime = 386 s

Courant Number mean: 2.948e-05 max: 0.0076296 velocity magnitude: 0.119213
Time = 0.007

MULES: Solving for alpha1
Liquid phase volume fraction = 0.00275421  Min(alpha1) = -5.18976e-29  Max(alpha1) = 1
MULES: Solving for alpha1
Liquid phase volume fraction = 0.00275421  Min(alpha1) = -6.17042e-29  Max(alpha1) = 1
GPU: 86 iters: 2.1545 s: 53.4072 GB/s
Total exec time 109.656
 Total comm time 0.219152Pre time 0.190666 Post time 0.0284861
GPUBICGS:  Solving for pd, Initial residual = 0.00231758, Final residual = 0.000112921, No Iterations 86
GPU: 79 iters: 1.97568 s: 53.5005 GB/s
Total exec time 111.632
 Total comm time 0.223046Pre time 0.194058 Post time 0.0289877
GPUBICGS:  Solving for pd, Initial residual = 0.00113901, Final residual = 5.46789e-05, No Iterations 79
GPU: 570 iters: 14.1921 s: 53.7373 GB/s
Total exec time 125.824
 Total comm time 0.250336Pre time 0.217752 Post time 0.0325836
GPUBICGS:  Solving for pd, Initial residual = 0.000564009, Final residual = 9.41218e-08, No Iterations 570
time step continuity errors : sum local = 8.51169e-12, global = 3.09069e-24, cumulative = -7.38086e-24
ExecutionTime = 426.96 s  ClockTime = 437 s

Courant Number mean: 3.46007e-05 max: 0.00833694 velocity magnitude: 0.130265
Time = 0.008

MULES: Solving for alpha1
Liquid phase volume fraction = 0.00275421  Min(alpha1) = -3.16342e-29  Max(alpha1) = 1
MULES: Solving for alpha1
Liquid phase volume fraction = 0.00275421  Min(alpha1) = -4.16005e-29  Max(alpha1) = 1
GPU: 83 iters: 2.07629 s: 53.4856 GB/s
Total exec time 127.9
 Total comm time 0.254708Pre time 0.221597 Post time 0.0331111
GPUBICGS:  Solving for pd, Initial residual = 0.00236048, Final residual = 0.000117636, No Iterations 83
GPU: 72 iters: 1.80627 s: 53.333 GB/s
Total exec time 129.707
 Total comm time 0.258255Pre time 0.224686 Post time 0.0335685
GPUBICGS:  Solving for pd, Initial residual = 0.00111451, Final residual = 5.51915e-05, No Iterations 72
GPU: 360 iters: 8.96111 s: 53.7511 GB/s
Total exec time 138.668
 Total comm time 0.276299Pre time 0.240464 Post time 0.0358354
GPUBICGS:  Solving for pd, Initial residual = 0.000483511, Final residual = 9.72523e-08, No Iterations 360
time step continuity errors : sum local = 6.91739e-12, global = 5.73016e-24, cumulative = -1.65071e-24
ExecutionTime = 471.46 s  ClockTime = 481 s

Courant Number mean: 3.97355e-05 max: 0.00902761 velocity magnitude: 0.140182
Time = 0.009

MULES: Solving for alpha1
Liquid phase volume fraction = 0.00275421  Min(alpha1) = -3.01542e-29  Max(alpha1) = 1
MULES: Solving for alpha1
Liquid phase volume fraction = 0.00275421  Min(alpha1) = -6.59851e-29  Max(alpha1) = 1
GPU: 77 iters: 1.91932 s: 53.6772 GB/s
Total exec time 140.587
 Total comm time 0.280232Pre time 0.243912 Post time 0.0363202
GPUBICGS:  Solving for pd, Initial residual = 0.00241755, Final residual = 0.000120087, No Iterations 77
GPU: 72 iters: 1.81099 s: 53.1941 GB/s
Total exec time 142.398
 Total comm time 0.283792Pre time 0.247015 Post time 0.0367764
GPUBICGS:  Solving for pd, Initial residual = 0.00107452, Final residual = 5.33769e-05, No Iterations 72
GPU: 367 iters: 9.13969 s: 53.7256 GB/s
Total exec time 151.538
 Total comm time 0.301845Pre time 0.262745 Post time 0.0390998
GPUBICGS:  Solving for pd, Initial residual = 0.000403464, Final residual = 9.60167e-08, No Iterations 367
time step continuity errors : sum local = 6.22142e-12, global = -2.20264e-24, cumulative = -3.85335e-24
ExecutionTime = 515.85 s  ClockTime = 526 s

Courant Number mean: 4.48897e-05 max: 0.00970837 velocity magnitude: 0.149192
Time = 0.01

MULES: Solving for alpha1
Liquid phase volume fraction = 0.00275421  Min(alpha1) = -2.36141e-29  Max(alpha1) = 1
MULES: Solving for alpha1
Liquid phase volume fraction = 0.00275421  Min(alpha1) = -5.58216e-29  Max(alpha1) = 1
GPU: 73 iters: 1.83361 s: 53.2676 GB/s
Total exec time 153.371
 Total comm time 0.305372Pre time 0.265808 Post time 0.0395643
GPUBICGS:  Solving for pd, Initial residual = 0.00258006, Final residual = 0.000127986, No Iterations 73
GPU: 69 iters: 1.72934 s: 53.3844 GB/s
Total exec time 155.101
 Total comm time 0.308818Pre time 0.268818 Post time 0.0400002
GPUBICGS:  Solving for pd, Initial residual = 0.00106629, Final residual = 5.17634e-05, No Iterations 69
GPU: 335 iters: 8.35494 s: 53.6474 GB/s
Total exec time 163.456
 Total comm time 0.32705Pre time 0.284944 Post time 0.0421062
GPUBICGS:  Solving for pd, Initial residual = 0.000355246, Final residual = 9.4377e-08, No Iterations 335
time step continuity errors : sum local = 5.35499e-12, global = -2.83475e-24, cumulative = -6.6881e-24
ExecutionTime = 559.48 s  ClockTime = 570 s

End

Finalising parallel run
