 Data for JOB [45990,1] offset 0

 ========================   JOB MAP   ========================

 Data for node: ivb124	Num slots: 6	Max slots: 0	Num procs: 6
 	Process OMPI jobid: [45990,1] App: 0 Process rank: 0
 	Process OMPI jobid: [45990,1] App: 0 Process rank: 1
 	Process OMPI jobid: [45990,1] App: 0 Process rank: 2
 	Process OMPI jobid: [45990,1] App: 0 Process rank: 3
 	Process OMPI jobid: [45990,1] App: 0 Process rank: 4
 	Process OMPI jobid: [45990,1] App: 0 Process rank: 5

 =============================================================
[ivb124:22660] MCW rank 3 bound to socket 0[core 3[hwt 0]]: [./././B/./././././.][./././././././././.]
[ivb124:22660] MCW rank 4 bound to socket 0[core 4[hwt 0]]: [././././B/././././.][./././././././././.]
[ivb124:22660] MCW rank 5 bound to socket 0[core 5[hwt 0]]: [./././././B/./././.][./././././././././.]
[ivb124:22660] MCW rank 0 bound to socket 0[core 0[hwt 0]]: [B/././././././././.][./././././././././.]
[ivb124:22660] MCW rank 1 bound to socket 0[core 1[hwt 0]]: [./B/./././././././.][./././././././././.]
[ivb124:22660] MCW rank 2 bound to socket 0[core 2[hwt 0]]: [././B/././././././.][./././././././././.]
1
0
2
3
4
5
/*---------------------------------------------------------------------------*\
| =========                 |                                                 |
| \\      /  F ield         | foam-extend: Open Source CFD                    |
|  \\    /   O peration     | Version:     3.1                                |
|   \\  /    A nd           | Web:         http://www.extend-project.de       |
|    \\/     M anipulation  |                                                 |
\*---------------------------------------------------------------------------*/
Build    : 3.1-e2da948002a2
Exec     : pimpleDyMFoam -parallel
Date     : May 27 2016
Time     : 05:13:08
Host     : ivb124
PID      : 22715
CtrlDict : /home-2/vplatonov/foam/foam-extend-3.1/etc/controlDict
Case     : /home/vplatonov/tests/3D-mesh1-of3.1
nProcs   : 6
Slaves : 
5
(
ivb124.22705
ivb124.22721
ivb124.22709
ivb124.22704
ivb124.22726
)

Pstream initialized with:
    floatTransfer     : 0
    nProcsSimpleSum   : 0
    commsType         : blocking
SigFpe   : Enabling floating point exception trapping (FOAM_SIGFPE).

// * * * * * * * * * * * * * * * * * * * * * * * * * * * * * * * * * * * * * //
Create time

Create dynamic mesh for time = 0

Selecting dynamicFvMesh dynamicMotionSolverFvMesh
Selecting motion solver: displacementLaplacian
Selecting motion diffusion: quadratic
Selecting motion diffusion: inverseDistance
Reading field p

Reading field U

Reading/calculating face flux field phi

Selecting incompressible transport model Newtonian
Selecting turbulence model type LESModel
Selecting LES turbulence model oneEqEddy
oneEqEddyCoeffs
{
    ce              1.048;
    ck              0.094;
}

Reading field rAU if present


Starting time loop

Courant Number mean: 0 max: 0.0007592825 velocity magnitude: 0.4779
Reading old state
Before setting displacements
GAMGPCG:  Solving for cellDisplacementx, Initial residual = 0, Final residual = 0, No Iterations 0
GAMGPCG:  Solving for cellDisplacementy, Initial residual = 0, Final residual = 0, No Iterations 0
GAMGPCG:  Solving for cellDisplacementz, Initial residual = 0, Final residual = 0, No Iterations 0
Time = 5e-06

GAMGPCG:  Solving for cellDisplacementx, Initial residual = 0, Final residual = 0, No Iterations 0
GAMGPCG:  Solving for cellDisplacementy, Initial residual = 0, Final residual = 0, No Iterations 0
GAMGPCG:  Solving for cellDisplacementz, Initial residual = 0, Final residual = 0, No Iterations 0
volume continuity errors : volume = 4.535015, max error = 0, sum local = 0, global = 0
smoothSolver:  Solving for Ux, Initial residual = 1, Final residual = 2.285051e-08, No Iterations 1
smoothSolver:  Solving for Uy, Initial residual = 1, Final residual = 2.172388e-08, No Iterations 1
smoothSolver:  Solving for Uz, Initial residual = 0.9999962, Final residual = 4.2334e-08, No Iterations 1
Created persistent data with name p
Computing AINV with droptol 0.02
GPU: 566 iters: 19.87225 s: 29.35293 GB/s
Total exec time 19.87225
 Total comm time 0.03612589Pre time 0.03258474 Post time 0.003541152
GPUBICGS:  Solving for p, Initial residual = 1, Final residual = 0.007306605, No Iterations 566
Computing AINV with droptol 0.02
GPU: 92 iters: 3.336687 s: 28.41545 GB/s
Total exec time 23.20894
 Total comm time 0.04179584Pre time 0.0376752 Post time 0.00412064
GPUBICGS:  Solving for p, Initial residual = 0.0004638092, Final residual = 9.992992e-06, No Iterations 92
time step continuity errors : sum local = 2.249349e-09, global = -4.507218e-10, cumulative = -4.507218e-10
Moving mesh time step continuity errors : sum local = 2.249349e-09, global = -4.507218e-10, cumulative = -9.014435e-10
GPU: 100 iters: 3.621946 s: 28.45379 GB/s
Total exec time 26.83088
 Total comm time 0.04802349Pre time 0.0432753 Post time 0.004748192
GPUBICGS:  Solving for p, Initial residual = 0.0001101848, Final residual = 7.241337e-06, No Iterations 100
GPU: 363 iters: 13.08543 s: 28.58912 GB/s
Total exec time 39.91631
 Total comm time 0.07059194Pre time 0.06356752 Post time 0.007024416
GPUBICGS:  Solving for p, Initial residual = 4.401476e-05, Final residual = 7.229024e-08, No Iterations 363
time step continuity errors : sum local = 1.628105e-11, global = -2.455814e-12, cumulative = -9.038993e-10
Moving mesh time step continuity errors : sum local = 1.628105e-11, global = -2.455814e-12, cumulative = -9.063551e-10
smoothSolver:  Solving for k, Initial residual = 1, Final residual = 1.262362e-11, No Iterations 2
ExecutionTime = 129.68 s  ClockTime = 131 s

Courant Number mean: 7.682851e-05 max: 0.002864542 velocity magnitude: 0.9549165
yForce = -1.327923
Y= -2.050161e-12
Vy= -8.200638e-07
Time = 1e-05

GAMGPCG:  Solving for cellDisplacementx, Initial residual = 0, Final residual = 0, No Iterations 0
Total solver time is 0
Total solver time is 0
Total solver time is 1
GAMGPCG:  Solving for cellDisplacementy, Initial residual = 1, Final residual = 3.310289e-09, No Iterations 1
GAMGPCG:  Solving for cellDisplacementz, Initial residual = 0, Final residual = 0, No Iterations 0
volume continuity errors : volume = 4.535015, max error = 1.00093e-08, sum local = 6.067163e-15, global = -5.645549e-18
smoothSolver:  Solving for Ux, Initial residual = 0.9975319, Final residual = 4.955118e-07, No Iterations 1
smoothSolver:  Solving for Uy, Initial residual = 0.3333108, Final residual = 1.44934e-06, No Iterations 1
smoothSolver:  Solving for Uz, Initial residual = 0.3304568, Final residual = 3.961744e-07, No Iterations 1
GPU: 487 iters: 17.60209 s: 28.51326 GB/s
Total exec time 57.5184
 Total comm time 0.1004748Pre time 0.09040093 Post time 0.01007386
GPUBICGS:  Solving for p, Initial residual = 0.003644738, Final residual = 3.636739e-05, No Iterations 487
GPU: 186 iters: 6.731034 s: 28.47825 GB/s
Total exec time 64.24943
 Total comm time 0.111692Pre time 0.100451 Post time 0.01124099
GPUBICGS:  Solving for p, Initial residual = 0.001408766, Final residual = 1.404255e-05, No Iterations 186
time step continuity errors : sum local = 1.0506e-09, global = 9.01174e-10, cumulative = -5.181179e-12
Moving mesh time step continuity errors : sum local = 1.0506e-09, global = 9.01174e-10, cumulative = 8.959928e-10
GPU: 345 iters: 12.46199 s: 28.53079 GB/s
Total exec time 76.71143
 Total comm time 0.1324842Pre time 0.1190823 Post time 0.01340189
GPUBICGS:  Solving for p, Initial residual = 0.0003143871, Final residual = 4.995401e-06, No Iterations 345
GPU: 618 iters: 22.27444 s: 28.59326 GB/s
Total exec time 98.98587
 Total comm time 0.1705748Pre time 0.1533012 Post time 0.01727366
GPUBICGS:  Solving for p, Initial residual = 0.000113735, Final residual = 8.491692e-08, No Iterations 618
time step continuity errors : sum local = 6.37592e-12, global = -6.36147e-12, cumulative = 8.896313e-10
Moving mesh time step continuity errors : sum local = 6.37592e-12, global = -6.36147e-12, cumulative = 8.832698e-10
smoothSolver:  Solving for k, Initial residual = 0.00878222, Final residual = 4.662637e-09, No Iterations 1
ExecutionTime = 220.2 s  ClockTime = 222 s

Courant Number mean: 7.683223e-05 max: 0.002856988 velocity magnitude: 0.9523983
yForce = 3.025507
Y= -1.47944e-12
Vy= 1.048351e-06
Time = 1.5e-05

GAMGPCG:  Solving for cellDisplacementx, Initial residual = 0, Final residual = 0, No Iterations 0
Total solver time is 0
Total solver time is 0
Total solver time is 1
GAMGPCG:  Solving for cellDisplacementy, Initial residual = 0.527789, Final residual = 2.655147e-09, No Iterations 1
GAMGPCG:  Solving for cellDisplacementz, Initial residual = 0, Final residual = 0, No Iterations 0
volume continuity errors : volume = 4.535015, max error = 1.253432e-08, sum local = 6.565015e-15, global = -9.527226e-19
smoothSolver:  Solving for Ux, Initial residual = 0.9921365, Final residual = 4.935507e-07, No Iterations 1
smoothSolver:  Solving for Uy, Initial residual = 0.1837236, Final residual = 8.663348e-07, No Iterations 1
smoothSolver:  Solving for Uz, Initial residual = 0.7860603, Final residual = 8.992569e-07, No Iterations 1
GPU: 450 iters: 16.26666 s: 28.50993 GB/s
Total exec time 115.2525
 Total comm time 0.1984375Pre time 0.1783398 Post time 0.02009773
GPUBICGS:  Solving for p, Initial residual = 0.0028012, Final residual = 2.583498e-05, No Iterations 450
GPU: 391 iters: 14.12784 s: 28.52219 GB/s
Total exec time 129.3804
 Total comm time 0.2228807Pre time 0.2003321 Post time 0.02254858
GPUBICGS:  Solving for p, Initial residual = 0.04843738, Final residual = 0.0004672238, No Iterations 391
time step continuity errors : sum local = 3.336559e-10, global = -1.159318e-10, cumulative = 7.67338e-10
Moving mesh time step continuity errors : sum local = 3.336559e-10, global = -1.159318e-10, cumulative = 6.514062e-10
GPU: 404 iters: 14.59148 s: 28.5341 GB/s
Total exec time 143.9719
 Total comm time 0.2478979Pre time 0.2228187 Post time 0.02507926
GPUBICGS:  Solving for p, Initial residual = 0.02069756, Final residual = 0.0002058156, No Iterations 404
GPU: 763 iters: 27.50457 s: 28.58918 GB/s
Total exec time 171.4764
 Total comm time 0.2958532Pre time 0.2659913 Post time 0.02986192
GPUBICGS:  Solving for p, Initial residual = 0.007363502, Final residual = 2.28515e-08, No Iterations 763
time step continuity errors : sum local = 7.541658e-15, global = -4.64624e-16, cumulative = 6.514058e-10
Moving mesh time step continuity errors : sum local = 7.541658e-15, global = -4.64624e-16, cumulative = 6.514053e-10
smoothSolver:  Solving for k, Initial residual = 0.003835592, Final residual = 2.146892e-09, No Iterations 1
ExecutionTime = 323.46 s  ClockTime = 326 s

Courant Number mean: 7.683291e-05 max: 0.002858866 velocity magnitude: 0.9530242
yForce = -0.9434193
Y= 2.305779e-12
Vy= 4.657371e-07
Time = 2e-05

GAMGPCG:  Solving for cellDisplacementx, Initial residual = 0, Final residual = 0, No Iterations 0
Total solver time is 0
Total solver time is 0
Total solver time is 1
GAMGPCG:  Solving for cellDisplacementy, Initial residual = 1, Final residual = 3.341017e-09, No Iterations 1
GAMGPCG:  Solving for cellDisplacementz, Initial residual = 0, Final residual = 0, No Iterations 0
volume continuity errors : volume = 4.535015, max error = 9.429766e-09, sum local = 6.655482e-15, global = 4.391411e-18
smoothSolver:  Solving for Ux, Initial residual = 0.05346761, Final residual = 5.180179e-08, No Iterations 1
smoothSolver:  Solving for Uy, Initial residual = 0.01341944, Final residual = 9.332768e-08, No Iterations 1
smoothSolver:  Solving for Uz, Initial residual = 0.9512502, Final residual = 8.47163e-07, No Iterations 1
GPU: 44 iters: 1.611813 s: 28.13326 GB/s
Total exec time 173.0882
 Total comm time 0.2985542Pre time 0.2684148 Post time 0.03013949
GPUBICGS:  Solving for p, Initial residual = 0.226449, Final residual = 0.001966137, No Iterations 44
GPU: 106 iters: 3.839585 s: 28.4514 GB/s
Total exec time 176.9278
 Total comm time 0.3050663Pre time 0.2742606 Post time 0.0308057
GPUBICGS:  Solving for p, Initial residual = 0.01224764, Final residual = 0.0001090355, No Iterations 106
time step continuity errors : sum local = 2.942376e-11, global = 9.092202e-12, cumulative = 6.604975e-10
Moving mesh time step continuity errors : sum local = 2.942376e-11, global = 9.092202e-12, cumulative = 6.695897e-10
GPU: 199 iters: 7.179831 s: 28.56413 GB/s
Total exec time 184.1077
 Total comm time 0.3172754Pre time 0.2852201 Post time 0.03205526
GPUBICGS:  Solving for p, Initial residual = 0.004249548, Final residual = 4.078112e-05, No Iterations 199
GPU: 578 iters: 20.85952 s: 28.55654 GB/s
Total exec time 204.9672
 Total comm time 0.3532877Pre time 0.3176086 Post time 0.0356791
GPUBICGS:  Solving for p, Initial residual = 0.001811743, Final residual = 8.984525e-08, No Iterations 578
time step continuity errors : sum local = 2.41854e-14, global = -3.329198e-15, cumulative = 6.695864e-10
Moving mesh time step continuity errors : sum local = 2.41854e-14, global = -3.329198e-15, cumulative = 6.69583e-10
smoothSolver:  Solving for k, Initial residual = 0.002273346, Final residual = 1.353552e-09, No Iterations 1
ExecutionTime = 389.18 s  ClockTime = 392 s

Courant Number mean: 7.683347e-05 max: 0.002856744 velocity magnitude: 0.9523168
yForce = -0.5647506
Y= 3.762553e-12
Vy= 1.169725e-07
Time = 2.5e-05

GAMGPCG:  Solving for cellDisplacementx, Initial residual = 0, Final residual = 0, No Iterations 0
Total solver time is 0
Total solver time is 0
Total solver time is 1
GAMGPCG:  Solving for cellDisplacementy, Initial residual = 0.4145855, Final residual = 2.219325e-09, No Iterations 1
GAMGPCG:  Solving for cellDisplacementz, Initial residual = 0, Final residual = 0, No Iterations 0
volume continuity errors : volume = 4.535015, max error = 9.708985e-09, sum local = 6.84239e-15, global = 1.968778e-18
smoothSolver:  Solving for Ux, Initial residual = 0.02761534, Final residual = 1.80436e-08, No Iterations 1
smoothSolver:  Solving for Uy, Initial residual = 0.004596881, Final residual = 3.184555e-08, No Iterations 1
smoothSolver:  Solving for Uz, Initial residual = 0.6666568, Final residual = 6.609619e-07, No Iterations 1
GPU: 9 iters: 0.3457264 s: 26.82823 GB/s
Total exec time 205.3129
 Total comm time 0.3539413Pre time 0.318203 Post time 0.03573827
GPUBICGS:  Solving for p, Initial residual = 0.1533791, Final residual = 0.001469618, No Iterations 9
GPU: 138 iters: 4.996561 s: 28.46361 GB/s
Total exec time 210.3095
 Total comm time 0.362444Pre time 0.3258412 Post time 0.03660282
GPUBICGS:  Solving for p, Initial residual = 0.003718467, Final residual = 3.559945e-05, No Iterations 138
time step continuity errors : sum local = 8.465088e-12, global = -2.071274e-12, cumulative = 6.675118e-10
Moving mesh time step continuity errors : sum local = 8.465088e-12, global = -2.071274e-12, cumulative = 6.654405e-10
GPU: 156 iters: 5.650284 s: 28.45355 GB/s
Total exec time 215.9597
 Total comm time 0.3720525Pre time 0.3344689 Post time 0.03758358
GPUBICGS:  Solving for p, Initial residual = 0.0009412182, Final residual = 9.249578e-06, No Iterations 156
GPU: 431 iters: 15.58439 s: 28.50161 GB/s
Total exec time 231.5441
 Total comm time 0.3980087Pre time 0.3577232 Post time 0.04028554
GPUBICGS:  Solving for p, Initial residual = 0.0003297324, Final residual = 9.09235e-08, No Iterations 431
time step continuity errors : sum local = 2.1586e-14, global = -1.263327e-14, cumulative = 6.654279e-10
Moving mesh time step continuity errors : sum local = 2.1586e-14, global = -1.263327e-14, cumulative = 6.654152e-10
smoothSolver:  Solving for k, Initial residual = 0.00155491, Final residual = 9.812331e-10, No Iterations 1
ExecutionTime = 448.1 s  ClockTime = 451 s

Courant Number mean: 7.68336e-05 max: 0.002854614 velocity magnitude: 0.9516069
yForce = 0.6074366
Y= 5.285228e-12
Vy= 4.920972e-07
Time = 3e-05

GAMGPCG:  Solving for cellDisplacementx, Initial residual = 0, Final residual = 0, No Iterations 0
Total solver time is 0
Total solver time is 0
Total solver time is 1
GAMGPCG:  Solving for cellDisplacementy, Initial residual = 0.3526413, Final residual = 1.157663e-09, No Iterations 1
GAMGPCG:  Solving for cellDisplacementz, Initial residual = 0, Final residual = 0, No Iterations 0
volume continuity errors : volume = 4.535015, max error = 1.007411e-08, sum local = 6.840098e-15, global = 5.106969e-18
smoothSolver:  Solving for Ux, Initial residual = 0.01762527, Final residual = 8.831642e-09, No Iterations 1
smoothSolver:  Solving for Uy, Initial residual = 0.001243264, Final residual = 1.622819e-08, No Iterations 1
smoothSolver:  Solving for Uz, Initial residual = 0.2225626, Final residual = 1.427091e-06, No Iterations 1
GPU: 3 iters: 0.1298072 s: 23.81795 GB/s
Total exec time 231.6739
 Total comm time 0.3982304Pre time 0.3579231 Post time 0.04030723
GPUBICGS:  Solving for p, Initial residual = 0.1088448, Final residual = 0.000702557, No Iterations 3
GPU: 44 iters: 1.616917 s: 28.04446 GB/s
Total exec time 233.2909
 Total comm time 0.4010389Pre time 0.3604528 Post time 0.04058611
GPUBICGS:  Solving for p, Initial residual = 0.001329068, Final residual = 1.295012e-05, No Iterations 44
time step continuity errors : sum local = 2.778232e-12, global = -2.570664e-14, cumulative = 6.653895e-10
Moving mesh time step continuity errors : sum local = 2.778232e-12, global = -2.570664e-14, cumulative = 6.653638e-10
GPU: 48 iters: 1.75884 s: 28.12528 GB/s
Total exec time 235.0497
 Total comm time 0.4040222Pre time 0.363133 Post time 0.04088922
GPUBICGS:  Solving for p, Initial residual = 0.0002646813, Final residual = 9.606852e-06, No Iterations 48
GPU: 453 iters: 16.4039 s: 28.45989 GB/s
Total exec time 251.4536
 Total comm time 0.4325696Pre time 0.3888384 Post time 0.0437312
GPUBICGS:  Solving for p, Initial residual = 0.0001029596, Final residual = 9.743422e-08, No Iterations 453
time step continuity errors : sum local = 2.089494e-14, global = -2.087809e-14, cumulative = 6.653429e-10
Moving mesh time step continuity errors : sum local = 2.089494e-14, global = -2.087809e-14, cumulative = 6.65322e-10
smoothSolver:  Solving for k, Initial residual = 0.00115698, Final residual = 7.629166e-10, No Iterations 1
ExecutionTime = 500.06 s  ClockTime = 503 s

Courant Number mean: 7.683369e-05 max: 0.002852247 velocity magnitude: 0.9508176
yForce = -0.2445916
Y= 7.36809e-12
Vy= 3.410479e-07
Time = 3.5e-05

GAMGPCG:  Solving for cellDisplacementx, Initial residual = 0, Final residual = 0, No Iterations 0
Total solver time is 0
Total solver time is 0
Total solver time is 1
GAMGPCG:  Solving for cellDisplacementy, Initial residual = 0.3580533, Final residual = 1.166397e-09, No Iterations 1
GAMGPCG:  Solving for cellDisplacementz, Initial residual = 0, Final residual = 0, No Iterations 0
volume continuity errors : volume = 4.535015, max error = 8.638576e-09, sum local = 6.838959e-15, global = 1.956289e-18
smoothSolver:  Solving for Ux, Initial residual = 0.01352926, Final residual = 6.940925e-09, No Iterations 1
smoothSolver:  Solving for Uy, Initial residual = 0.0009622758, Final residual = 1.214124e-08, No Iterations 1
smoothSolver:  Solving for Uz, Initial residual = 0.4244243, Final residual = 2.855852e-06, No Iterations 1
GPU: 2 iters: 0.09628416 s: 21.40707 GB/s
Total exec time 251.5499
 Total comm time 0.4327171Pre time 0.3889704 Post time 0.04374669
GPUBICGS:  Solving for p, Initial residual = 0.09114456, Final residual = 0.0003787109, No Iterations 2
GPU: 23 iters: 0.8501036 s: 27.88291 GB/s
Total exec time 252.4
 Total comm time 0.4341605Pre time 0.3902671 Post time 0.04389344
GPUBICGS:  Solving for p, Initial residual = 0.0005609452, Final residual = 9.623663e-06, No Iterations 23
time step continuity errors : sum local = 1.89579e-12, global = -2.847552e-14, cumulative = 6.652936e-10
Moving mesh time step continuity errors : sum local = 1.89579e-12, global = -2.847552e-14, cumulative = 6.652651e-10
GPU: 8 iters: 0.3106809 s: 26.53735 GB/s
Total exec time 252.7107
 Total comm time 0.4347014Pre time 0.3907546 Post time 0.04394678
GPUBICGS:  Solving for p, Initial residual = 8.295749e-05, Final residual = 9.804563e-06, No Iterations 8
GPU: 489 iters: 17.65377 s: 28.54655 GB/s
Total exec time 270.3644
 Total comm time 0.464674Pre time 0.4176718 Post time 0.04700227
GPUBICGS:  Solving for p, Initial residual = 2.956048e-05, Final residual = 9.443697e-08, No Iterations 489
time step continuity errors : sum local = 1.860073e-14, global = -6.063941e-15, cumulative = 6.65259e-10
Moving mesh time step continuity errors : sum local = 1.860073e-14, global = -6.063941e-15, cumulative = 6.65253e-10
smoothSolver:  Solving for k, Initial residual = 0.0009097857, Final residual = 6.330938e-10, No Iterations 1
ExecutionTime = 551.4 s  ClockTime = 555 s

Courant Number mean: 7.683374e-05 max: 0.002849502 velocity magnitude: 0.9499025
yForce = -0.03067304
Y= 9.025973e-12
Vy= 3.221052e-07
Time = 4e-05

GAMGPCG:  Solving for cellDisplacementx, Initial residual = 0, Final residual = 0, No Iterations 0
Total solver time is 0
Total solver time is 0
Total solver time is 1
GAMGPCG:  Solving for cellDisplacementy, Initial residual = 0.242336, Final residual = 8.525676e-10, No Iterations 1
GAMGPCG:  Solving for cellDisplacementz, Initial residual = 0, Final residual = 0, No Iterations 0
volume continuity errors : volume = 4.535015, max error = 1.229013e-08, sum local = 6.857382e-15, global = -1.471048e-18
smoothSolver:  Solving for Ux, Initial residual = 0.0109579, Final residual = 5.676558e-09, No Iterations 1
smoothSolver:  Solving for Uy, Initial residual = 0.0008055979, Final residual = 9.762365e-09, No Iterations 1
smoothSolver:  Solving for Uz, Initial residual = 0.2897028, Final residual = 2.755675e-06, No Iterations 1
GPU: 2 iters: 0.09594899 s: 21.48185 GB/s
Total exec time 270.4604
 Total comm time 0.4648379Pre time 0.4178203 Post time 0.04701766
GPUBICGS:  Solving for p, Initial residual = 0.0749711, Final residual = 0.0001464287, No Iterations 2
GPU: 9 iters: 0.3481707 s: 26.63988 GB/s
Total exec time 270.8085
 Total comm time 0.4654414Pre time 0.4183644 Post time 0.04707702
GPUBICGS:  Solving for p, Initial residual = 0.0002943612, Final residual = 9.712116e-06, No Iterations 9
time step continuity errors : sum local = 1.777451e-12, global = 1.64205e-14, cumulative = 6.652694e-10
Moving mesh time step continuity errors : sum local = 1.777451e-12, global = 1.64205e-14, cumulative = 6.652858e-10
GPU: 2 iters: 0.09462509 s: 21.7824 GB/s
Total exec time 270.9032
 Total comm time 0.4656238Pre time 0.4185312 Post time 0.04709261
GPUBICGS:  Solving for p, Initial residual = 3.595963e-05, Final residual = 9.98789e-06, No Iterations 2
GPU: 414 iters: 14.96341 s: 28.51358 GB/s
Total exec time 285.8666
 Total comm time 0.4910083Pre time 0.4413225 Post time 0.04968576
GPUBICGS:  Solving for p, Initial residual = 1.571782e-05, Final residual = 9.973211e-08, No Iterations 414
time step continuity errors : sum local = 1.82514e-14, global = 1.823263e-14, cumulative = 6.65304e-10
Moving mesh time step continuity errors : sum local = 1.82514e-14, global = 1.823263e-14, cumulative = 6.653223e-10
smoothSolver:  Solving for k, Initial residual = 0.0007437228, Final residual = 5.397479e-10, No Iterations 1
ExecutionTime = 600.02 s  ClockTime = 604 s

Courant Number mean: 7.683376e-05 max: 0.002846382 velocity magnitude: 0.9488625
yForce = 0.09225608
Y= 1.077893e-11
Vy= 3.790778e-07
Time = 4.5e-05

GAMGPCG:  Solving for cellDisplacementx, Initial residual = 0, Final residual = 0, No Iterations 0
Total solver time is 0
Total solver time is 0
Total solver time is 1
GAMGPCG:  Solving for cellDisplacementy, Initial residual = 0.2199053, Final residual = 7.231657e-10, No Iterations 1
GAMGPCG:  Solving for cellDisplacementz, Initial residual = 0, Final residual = 0, No Iterations 0
volume continuity errors : volume = 4.535015, max error = 1.278575e-08, sum local = 6.854694e-15, global = -1.862091e-18
smoothSolver:  Solving for Ux, Initial residual = 0.009362127, Final residual = 4.835652e-09, No Iterations 1
smoothSolver:  Solving for Uy, Initial residual = 0.0006803122, Final residual = 8.07068e-09, No Iterations 1
smoothSolver:  Solving for Uz, Initial residual = 0.3555923, Final residual = 1.639573e-06, No Iterations 1
GPU: 2 iters: 0.09728992 s: 21.18577 GB/s
Total exec time 285.9639
 Total comm time 0.4911773Pre time 0.4414757 Post time 0.04970154
GPUBICGS:  Solving for p, Initial residual = 0.06276991, Final residual = 0.0001102042, No Iterations 2
GPU: 8 iters: 0.3138486 s: 26.2695 GB/s
Total exec time 286.2777
 Total comm time 0.4917072Pre time 0.4419526 Post time 0.04975466
GPUBICGS:  Solving for p, Initial residual = 0.0002190127, Final residual = 9.287884e-06, No Iterations 8
time step continuity errors : sum local = 1.592916e-12, global = 4.567603e-14, cumulative = 6.65368e-10
Moving mesh time step continuity errors : sum local = 1.592916e-12, global = 4.567603e-14, cumulative = 6.654136e-10
GPU: 2 iters: 0.09502087 s: 21.69167 GB/s
Total exec time 286.3727
 Total comm time 0.4918732Pre time 0.442103 Post time 0.04977024
GPUBICGS:  Solving for p, Initial residual = 2.333186e-05, Final residual = 9.421757e-06, No Iterations 2
GPU: 456 iters: 16.48295 s: 28.51098 GB/s
Total exec time 302.8557
 Total comm time 0.5193539Pre time 0.4667279 Post time 0.05262598
GPUBICGS:  Solving for p, Initial residual = 1.145103e-05, Final residual = 3.754165e-08, No Iterations 456
time step continuity errors : sum local = 6.438356e-15, global = 2.918276e-16, cumulative = 6.654139e-10
Moving mesh time step continuity errors : sum local = 6.438356e-15, global = 2.918276e-16, cumulative = 6.654142e-10
smoothSolver:  Solving for k, Initial residual = 0.0006256188, Final residual = 4.717859e-10, No Iterations 1
ExecutionTime = 649.99 s  ClockTime = 654 s

Courant Number mean: 7.683376e-05 max: 0.002842881 velocity magnitude: 0.948245
yForce = -0.04507158
Y= 1.260473e-11
Vy= 3.512431e-07
Time = 5e-05

GAMGPCG:  Solving for cellDisplacementx, Initial residual = 0, Final residual = 0, No Iterations 0
Total solver time is 0
Total solver time is 0
Total solver time is 1
GAMGPCG:  Solving for cellDisplacementy, Initial residual = 0.1984205, Final residual = 6.485642e-10, No Iterations 1
GAMGPCG:  Solving for cellDisplacementz, Initial residual = 0, Final residual = 0, No Iterations 0
volume continuity errors : volume = 4.535015, max error = 8.856686e-09, sum local = 6.855143e-15, global = -2.025237e-19
smoothSolver:  Solving for Ux, Initial residual = 0.008282632, Final residual = 4.219418e-09, No Iterations 1
smoothSolver:  Solving for Uy, Initial residual = 0.0005948712, Final residual = 6.845401e-09, No Iterations 1
smoothSolver:  Solving for Uz, Initial residual = 0.2893339, Final residual = 9.142718e-07, No Iterations 1
GPU: 2 iters: 0.09537827 s: 21.61039 GB/s
Total exec time 302.9511
 Total comm time 0.5195194Pre time 0.4668776 Post time 0.05264186
GPUBICGS:  Solving for p, Initial residual = 0.05636564, Final residual = 8.496388e-05, No Iterations 2
GPU: 6 iters: 0.2415 s: 25.60449 GB/s
Total exec time 303.1926
 Total comm time 0.5199188Pre time 0.4672366 Post time 0.05268221
GPUBICGS:  Solving for p, Initial residual = 0.0001702957, Final residual = 8.849646e-06, No Iterations 6
time step continuity errors : sum local = 1.432062e-12, global = -3.173778e-14, cumulative = 6.653825e-10
Moving mesh time step continuity errors : sum local = 1.432062e-12, global = -3.173778e-14, cumulative = 6.653507e-10
GPU: 1 iters: 0.05923107 s: 17.39933 GB/s
Total exec time 303.2518
 Total comm time 0.5200139Pre time 0.4673222 Post time 0.05269165
GPUBICGS:  Solving for p, Initial residual = 1.862046e-05, Final residual = 9.349027e-06, No Iterations 1
GPU: 432 iters: 15.62541 s: 28.49275 GB/s
Total exec time 318.8772
 Total comm time 0.5472109Pre time 0.4918155 Post time 0.05539546
GPUBICGS:  Solving for p, Initial residual = 1.037215e-05, Final residual = 9.765249e-08, No Iterations 432
time step continuity errors : sum local = 1.580186e-14, global = -9.335627e-15, cumulative = 6.653414e-10
Moving mesh time step continuity errors : sum local = 1.580186e-14, global = -9.335627e-15, cumulative = 6.653321e-10
smoothSolver:  Solving for k, Initial residual = 0.0005379007, Final residual = 4.204784e-10, No Iterations 1
ExecutionTime = 698.86 s  ClockTime = 703 s

yForce = 0.002060491
Y= 1.436413e-11
Vy= 3.52515e-07
End

Finalising parallel run
