 Data for JOB [18288,1] offset 0

 ========================   JOB MAP   ========================

 Data for node: ivb112	Num slots: 3	Max slots: 0	Num procs: 3
 	Process OMPI jobid: [18288,1] App: 0 Process rank: 0
 	Process OMPI jobid: [18288,1] App: 0 Process rank: 1
 	Process OMPI jobid: [18288,1] App: 0 Process rank: 2

 Data for node: ivb113	Num slots: 3	Max slots: 0	Num procs: 3
 	Process OMPI jobid: [18288,1] App: 0 Process rank: 3
 	Process OMPI jobid: [18288,1] App: 0 Process rank: 4
 	Process OMPI jobid: [18288,1] App: 0 Process rank: 5

 =============================================================
[ivb112:06278] MCW rank 0 bound to socket 0[core 0[hwt 0]]: [B/././././././././.][./././././././././.]
[ivb112:06278] MCW rank 1 bound to socket 0[core 1[hwt 0]]: [./B/./././././././.][./././././././././.]
[ivb112:06278] MCW rank 2 bound to socket 0[core 2[hwt 0]]: [././B/././././././.][./././././././././.]
[ivb113:21482] MCW rank 3 bound to socket 0[core 0[hwt 0]]: [B/././././././././.][./././././././././.]
[ivb113:21482] MCW rank 4 bound to socket 0[core 1[hwt 0]]: [./B/./././././././.][./././././././././.]
[ivb113:21482] MCW rank 5 bound to socket 0[core 2[hwt 0]]: [././B/././././././.][./././././././././.]
0
2
1
0
1
2
/*---------------------------------------------------------------------------*\
| =========                 |                                                 |
| \\      /  F ield         | foam-extend: Open Source CFD                    |
|  \\    /   O peration     | Version:     3.1                                |
|   \\  /    A nd           | Web:         http://www.extend-project.de       |
|    \\/     M anipulation  |                                                 |
\*---------------------------------------------------------------------------*/
Build    : 3.1-e2da948002a2
Exec     : pimpleDyMFoam -parallel
Date     : May 27 2016
Time     : 05:38:27
Host     : ivb112
PID      : 6312
CtrlDict : /home-2/vplatonov/foam/foam-extend-3.1/etc/controlDict
Case     : /home/vplatonov/tests/3D-mesh1-of3.1
nProcs   : 6
Slaves : 
5
(
ivb112.6318
ivb112.6313
ivb113.21516
ivb113.21513
ivb113.21514
)

Pstream initialized with:
    floatTransfer     : 0
    nProcsSimpleSum   : 0
    commsType         : blocking
SigFpe   : Enabling floating point exception trapping (FOAM_SIGFPE).

// * * * * * * * * * * * * * * * * * * * * * * * * * * * * * * * * * * * * * //
Create time

Create dynamic mesh for time = 0

Selecting dynamicFvMesh dynamicMotionSolverFvMesh
Selecting motion solver: displacementLaplacian
Selecting motion diffusion: quadratic
Selecting motion diffusion: inverseDistance
Reading field p

Reading field U

Reading/calculating face flux field phi

Selecting incompressible transport model Newtonian
Selecting turbulence model type LESModel
Selecting LES turbulence model oneEqEddy
oneEqEddyCoeffs
{
    ce              1.048;
    ck              0.094;
}

Reading field rAU if present


Starting time loop

Courant Number mean: 0 max: 0.0007592825 velocity magnitude: 0.4779
Reading old state
Before setting displacements
GAMGPCG:  Solving for cellDisplacementx, Initial residual = 0, Final residual = 0, No Iterations 0
GAMGPCG:  Solving for cellDisplacementy, Initial residual = 0, Final residual = 0, No Iterations 0
GAMGPCG:  Solving for cellDisplacementz, Initial residual = 0, Final residual = 0, No Iterations 0
Time = 5e-06

GAMGPCG:  Solving for cellDisplacementx, Initial residual = 0, Final residual = 0, No Iterations 0
GAMGPCG:  Solving for cellDisplacementy, Initial residual = 0, Final residual = 0, No Iterations 0
GAMGPCG:  Solving for cellDisplacementz, Initial residual = 0, Final residual = 0, No Iterations 0
volume continuity errors : volume = 4.535015, max error = 0, sum local = 0, global = 0
smoothSolver:  Solving for Ux, Initial residual = 1, Final residual = 2.285051e-08, No Iterations 1
smoothSolver:  Solving for Uy, Initial residual = 1, Final residual = 2.172388e-08, No Iterations 1
smoothSolver:  Solving for Uz, Initial residual = 0.9999962, Final residual = 4.2334e-08, No Iterations 1
Created persistent data with name p
Computing AINV with droptol 0.02
GPU: 566 iters: 19.94589 s: 29.24456 GB/s
Total exec time 19.94589
 Total comm time 0.03768029Pre time 0.03416957 Post time 0.00351072
GPUBICGS:  Solving for p, Initial residual = 1, Final residual = 0.007306605, No Iterations 566
Computing AINV with droptol 0.02
GPU: 92 iters: 3.140059 s: 30.1948 GB/s
Total exec time 23.08595
 Total comm time 0.04312589Pre time 0.0390425 Post time 0.004083392
GPUBICGS:  Solving for p, Initial residual = 0.0004638092, Final residual = 9.992992e-06, No Iterations 92
time step continuity errors : sum local = 2.249349e-09, global = -4.507218e-10, cumulative = -4.507218e-10
Moving mesh time step continuity errors : sum local = 2.249349e-09, global = -4.507218e-10, cumulative = -9.014435e-10
GPU: 100 iters: 3.403444 s: 30.28053 GB/s
Total exec time 26.48939
 Total comm time 0.04917382Pre time 0.04446598 Post time 0.00470784
GPUBICGS:  Solving for p, Initial residual = 0.0001101848, Final residual = 7.241337e-06, No Iterations 100
GPU: 363 iters: 12.32256 s: 30.35903 GB/s
Total exec time 38.81195
 Total comm time 0.07833632Pre time 0.06445411 Post time 0.01388221
GPUBICGS:  Solving for p, Initial residual = 4.401476e-05, Final residual = 7.229024e-08, No Iterations 363
time step continuity errors : sum local = 1.628105e-11, global = -2.455814e-12, cumulative = -9.038993e-10
Moving mesh time step continuity errors : sum local = 1.628105e-11, global = -2.455814e-12, cumulative = -9.063551e-10
smoothSolver:  Solving for k, Initial residual = 1, Final residual = 1.262362e-11, No Iterations 2
ExecutionTime = 115.54 s  ClockTime = 118 s

Courant Number mean: 7.682851e-05 max: 0.002864542 velocity magnitude: 0.9549165
yForce = -1.327923
Y= -2.050161e-12
Vy= -8.200638e-07
Time = 1e-05

GAMGPCG:  Solving for cellDisplacementx, Initial residual = 0, Final residual = 0, No Iterations 0
Total solver time is 0
Total solver time is 0
Total solver time is 1
GAMGPCG:  Solving for cellDisplacementy, Initial residual = 1, Final residual = 3.310289e-09, No Iterations 1
GAMGPCG:  Solving for cellDisplacementz, Initial residual = 0, Final residual = 0, No Iterations 0
volume continuity errors : volume = 4.535015, max error = 1.00093e-08, sum local = 6.067163e-15, global = -5.645549e-18
smoothSolver:  Solving for Ux, Initial residual = 0.9975319, Final residual = 4.955118e-07, No Iterations 1
smoothSolver:  Solving for Uy, Initial residual = 0.3333108, Final residual = 1.44934e-06, No Iterations 1
smoothSolver:  Solving for Uz, Initial residual = 0.3304568, Final residual = 3.961744e-07, No Iterations 1
GPU: 487 iters: 16.62139 s: 30.1956 GB/s
Total exec time 55.43334
 Total comm time 0.1090987Pre time 0.09216838 Post time 0.0169303
GPUBICGS:  Solving for p, Initial residual = 0.003644738, Final residual = 3.636739e-05, No Iterations 487
GPU: 186 iters: 6.31052 s: 30.37595 GB/s
Total exec time 61.74386
 Total comm time 0.1205867Pre time 0.1024866 Post time 0.01810006
GPUBICGS:  Solving for p, Initial residual = 0.001408766, Final residual = 1.404255e-05, No Iterations 186
time step continuity errors : sum local = 1.0506e-09, global = 9.01174e-10, cumulative = -5.181179e-12
Moving mesh time step continuity errors : sum local = 1.0506e-09, global = 9.01174e-10, cumulative = 8.959928e-10
GPU: 345 iters: 11.79358 s: 30.14779 GB/s
Total exec time 73.53744
 Total comm time 0.1421724Pre time 0.1219011 Post time 0.02027133
GPUBICGS:  Solving for p, Initial residual = 0.0003143871, Final residual = 4.995401e-06, No Iterations 345
GPU: 618 iters: 21.02738 s: 30.28904 GB/s
Total exec time 94.56482
 Total comm time 0.1899336Pre time 0.1565878 Post time 0.03334582
GPUBICGS:  Solving for p, Initial residual = 0.000113735, Final residual = 8.491692e-08, No Iterations 618
time step continuity errors : sum local = 6.37592e-12, global = -6.36147e-12, cumulative = 8.896313e-10
Moving mesh time step continuity errors : sum local = 6.37592e-12, global = -6.36147e-12, cumulative = 8.832698e-10
smoothSolver:  Solving for k, Initial residual = 0.00878222, Final residual = 4.662637e-09, No Iterations 1
ExecutionTime = 200.16 s  ClockTime = 203 s

Courant Number mean: 7.683223e-05 max: 0.002856988 velocity magnitude: 0.9523983
yForce = 3.025507
Y= -1.47944e-12
Vy= 1.048351e-06
Time = 1.5e-05

GAMGPCG:  Solving for cellDisplacementx, Initial residual = 0, Final residual = 0, No Iterations 0
Total solver time is 0
Total solver time is 0
Total solver time is 1
GAMGPCG:  Solving for cellDisplacementy, Initial residual = 0.527789, Final residual = 2.655147e-09, No Iterations 1
GAMGPCG:  Solving for cellDisplacementz, Initial residual = 0, Final residual = 0, No Iterations 0
volume continuity errors : volume = 4.535015, max error = 1.253432e-08, sum local = 6.565015e-15, global = -9.527226e-19
smoothSolver:  Solving for Ux, Initial residual = 0.9921365, Final residual = 4.935507e-07, No Iterations 1
smoothSolver:  Solving for Uy, Initial residual = 0.1837236, Final residual = 8.663348e-07, No Iterations 1
smoothSolver:  Solving for Uz, Initial residual = 0.7860603, Final residual = 8.992569e-07, No Iterations 1
GPU: 450 iters: 15.39754 s: 30.11919 GB/s
Total exec time 109.9624
 Total comm time 0.2300588Pre time 0.181385 Post time 0.04867379
GPUBICGS:  Solving for p, Initial residual = 0.0028012, Final residual = 2.583498e-05, No Iterations 450
GPU: 391 iters: 13.30747 s: 30.28051 GB/s
Total exec time 123.2698
 Total comm time 0.2537329Pre time 0.2026229 Post time 0.05111002
GPUBICGS:  Solving for p, Initial residual = 0.04843738, Final residual = 0.0004672238, No Iterations 391
time step continuity errors : sum local = 3.336559e-10, global = -1.159318e-10, cumulative = 7.67338e-10
Moving mesh time step continuity errors : sum local = 3.336559e-10, global = -1.159318e-10, cumulative = 6.514062e-10
GPU: 404 iters: 13.76931 s: 30.23788 GB/s
Total exec time 137.0391
 Total comm time 0.2789684Pre time 0.225336 Post time 0.05363242
GPUBICGS:  Solving for p, Initial residual = 0.02069756, Final residual = 0.0002058156, No Iterations 404
GPU: 763 iters: 26.01173 s: 30.22994 GB/s
Total exec time 163.0509
 Total comm time 0.3282186Pre time 0.2698122 Post time 0.0584064
GPUBICGS:  Solving for p, Initial residual = 0.007363502, Final residual = 2.28515e-08, No Iterations 763
time step continuity errors : sum local = 7.541658e-15, global = -4.64624e-16, cumulative = 6.514058e-10
Moving mesh time step continuity errors : sum local = 7.541658e-15, global = -4.64624e-16, cumulative = 6.514053e-10
smoothSolver:  Solving for k, Initial residual = 0.003835592, Final residual = 2.146892e-09, No Iterations 1
ExecutionTime = 297.56 s  ClockTime = 305 s

Courant Number mean: 7.683291e-05 max: 0.002858866 velocity magnitude: 0.9530242
yForce = -0.9434193
Y= 2.305779e-12
Vy= 4.657371e-07
Time = 2e-05

GAMGPCG:  Solving for cellDisplacementx, Initial residual = 0, Final residual = 0, No Iterations 0
Total solver time is 0
Total solver time is 0
Total solver time is 1
GAMGPCG:  Solving for cellDisplacementy, Initial residual = 1, Final residual = 3.341017e-09, No Iterations 1
GAMGPCG:  Solving for cellDisplacementz, Initial residual = 0, Final residual = 0, No Iterations 0
volume continuity errors : volume = 4.535015, max error = 9.429766e-09, sum local = 6.655482e-15, global = 4.391411e-18
smoothSolver:  Solving for Ux, Initial residual = 0.05346761, Final residual = 5.180179e-08, No Iterations 1
smoothSolver:  Solving for Uy, Initial residual = 0.01341944, Final residual = 9.332768e-08, No Iterations 1
smoothSolver:  Solving for Uz, Initial residual = 0.9512502, Final residual = 8.47163e-07, No Iterations 1
GPU: 44 iters: 1.509939 s: 30.03138 GB/s
Total exec time 164.5608
 Total comm time 0.3310586Pre time 0.2723756 Post time 0.05868294
GPUBICGS:  Solving for p, Initial residual = 0.226449, Final residual = 0.001966137, No Iterations 44
GPU: 106 iters: 3.635458 s: 30.04892 GB/s
Total exec time 168.1963
 Total comm time 0.3378081Pre time 0.278461 Post time 0.0593471
GPUBICGS:  Solving for p, Initial residual = 0.01224764, Final residual = 0.0001090355, No Iterations 106
time step continuity errors : sum local = 2.942376e-11, global = 9.092202e-12, cumulative = 6.604975e-10
Moving mesh time step continuity errors : sum local = 2.942376e-11, global = 9.092202e-12, cumulative = 6.695897e-10
GPU: 199 iters: 6.806653 s: 30.13017 GB/s
Total exec time 175.0029
 Total comm time 0.3503433Pre time 0.2897535 Post time 0.06058982
GPUBICGS:  Solving for p, Initial residual = 0.004249548, Final residual = 4.078112e-05, No Iterations 199
GPU: 578 iters: 19.77543 s: 30.12201 GB/s
Total exec time 194.7783
 Total comm time 0.3869101Pre time 0.3226946 Post time 0.06421558
GPUBICGS:  Solving for p, Initial residual = 0.001811743, Final residual = 8.984525e-08, No Iterations 578
time step continuity errors : sum local = 2.41854e-14, global = -3.329198e-15, cumulative = 6.695864e-10
Moving mesh time step continuity errors : sum local = 2.41854e-14, global = -3.329198e-15, cumulative = 6.69583e-10
smoothSolver:  Solving for k, Initial residual = 0.002273346, Final residual = 1.353552e-09, No Iterations 1
ExecutionTime = 359.3 s  ClockTime = 367 s

Courant Number mean: 7.683347e-05 max: 0.002856744 velocity magnitude: 0.9523168
yForce = -0.5647506
Y= 3.762553e-12
Vy= 1.169725e-07
Time = 2.5e-05

GAMGPCG:  Solving for cellDisplacementx, Initial residual = 0, Final residual = 0, No Iterations 0
Total solver time is 0
Total solver time is 0
Total solver time is 1
GAMGPCG:  Solving for cellDisplacementy, Initial residual = 0.4145855, Final residual = 2.219325e-09, No Iterations 1
GAMGPCG:  Solving for cellDisplacementz, Initial residual = 0, Final residual = 0, No Iterations 0
volume continuity errors : volume = 4.535015, max error = 9.708985e-09, sum local = 6.84239e-15, global = 1.968778e-18
smoothSolver:  Solving for Ux, Initial residual = 0.02761534, Final residual = 1.80436e-08, No Iterations 1
smoothSolver:  Solving for Uy, Initial residual = 0.004596881, Final residual = 3.184555e-08, No Iterations 1
smoothSolver:  Solving for Uz, Initial residual = 0.6666568, Final residual = 6.609619e-07, No Iterations 1
GPU: 9 iters: 0.3235822 s: 28.66421 GB/s
Total exec time 195.1019
 Total comm time 0.3874707Pre time 0.3231958 Post time 0.06427482
GPUBICGS:  Solving for p, Initial residual = 0.1533791, Final residual = 0.001469618, No Iterations 9
GPU: 138 iters: 4.746646 s: 29.96225 GB/s
Total exec time 199.8486
 Total comm time 0.3969086Pre time 0.33175 Post time 0.06515859
GPUBICGS:  Solving for p, Initial residual = 0.003718467, Final residual = 3.559945e-05, No Iterations 138
time step continuity errors : sum local = 8.465088e-12, global = -2.071274e-12, cumulative = 6.675118e-10
Moving mesh time step continuity errors : sum local = 8.465088e-12, global = -2.071274e-12, cumulative = 6.654405e-10
GPU: 156 iters: 5.391203 s: 29.82092 GB/s
Total exec time 205.2398
 Total comm time 0.4064506Pre time 0.3403166 Post time 0.06613405
GPUBICGS:  Solving for p, Initial residual = 0.0009412182, Final residual = 9.249578e-06, No Iterations 156
GPU: 431 iters: 14.66454 s: 30.28941 GB/s
Total exec time 219.9043
 Total comm time 0.4325899Pre time 0.3637642 Post time 0.0688257
GPUBICGS:  Solving for p, Initial residual = 0.0003297324, Final residual = 9.09235e-08, No Iterations 431
time step continuity errors : sum local = 2.1586e-14, global = -1.263327e-14, cumulative = 6.654279e-10
Moving mesh time step continuity errors : sum local = 2.1586e-14, global = -1.263327e-14, cumulative = 6.654152e-10
smoothSolver:  Solving for k, Initial residual = 0.00155491, Final residual = 9.812331e-10, No Iterations 1
ExecutionTime = 414.31 s  ClockTime = 423 s

Courant Number mean: 7.68336e-05 max: 0.002854614 velocity magnitude: 0.9516069
yForce = 0.6074366
Y= 5.285228e-12
Vy= 4.920972e-07
Time = 3e-05

GAMGPCG:  Solving for cellDisplacementx, Initial residual = 0, Final residual = 0, No Iterations 0
Total solver time is 0
Total solver time is 0
Total solver time is 1
GAMGPCG:  Solving for cellDisplacementy, Initial residual = 0.3526413, Final residual = 1.157663e-09, No Iterations 1
GAMGPCG:  Solving for cellDisplacementz, Initial residual = 0, Final residual = 0, No Iterations 0
volume continuity errors : volume = 4.535015, max error = 1.007411e-08, sum local = 6.840098e-15, global = 5.106969e-18
smoothSolver:  Solving for Ux, Initial residual = 0.01762527, Final residual = 8.831642e-09, No Iterations 1
smoothSolver:  Solving for Uy, Initial residual = 0.001243264, Final residual = 1.622819e-08, No Iterations 1
smoothSolver:  Solving for Uz, Initial residual = 0.2225626, Final residual = 1.427091e-06, No Iterations 1
GPU: 3 iters: 0.1223203 s: 25.2758 GB/s
Total exec time 220.0266
 Total comm time 0.4328225Pre time 0.3639752 Post time 0.06884733
GPUBICGS:  Solving for p, Initial residual = 0.1088448, Final residual = 0.000702557, No Iterations 3
GPU: 44 iters: 1.524284 s: 29.74876 GB/s
Total exec time 221.5509
 Total comm time 0.4355762Pre time 0.3664522 Post time 0.06912397
GPUBICGS:  Solving for p, Initial residual = 0.001329068, Final residual = 1.295012e-05, No Iterations 44
time step continuity errors : sum local = 2.778232e-12, global = -2.570664e-14, cumulative = 6.653895e-10
Moving mesh time step continuity errors : sum local = 2.778232e-12, global = -2.570664e-14, cumulative = 6.653638e-10
GPU: 48 iters: 1.694455 s: 29.19398 GB/s
Total exec time 223.2454
 Total comm time 0.4388942Pre time 0.369468 Post time 0.06942627
GPUBICGS:  Solving for p, Initial residual = 0.0002646813, Final residual = 9.606852e-06, No Iterations 48
GPU: 453 iters: 15.42582 s: 30.26439 GB/s
Total exec time 238.6712
 Total comm time 0.4671867Pre time 0.3949215 Post time 0.07226518
GPUBICGS:  Solving for p, Initial residual = 0.0001029596, Final residual = 9.743422e-08, No Iterations 453
time step continuity errors : sum local = 2.089494e-14, global = -2.087809e-14, cumulative = 6.653429e-10
Moving mesh time step continuity errors : sum local = 2.089494e-14, global = -2.087809e-14, cumulative = 6.65322e-10
smoothSolver:  Solving for k, Initial residual = 0.00115698, Final residual = 7.629166e-10, No Iterations 1
ExecutionTime = 463.08 s  ClockTime = 472 s

Courant Number mean: 7.683369e-05 max: 0.002852247 velocity magnitude: 0.9508176
yForce = -0.2445916
Y= 7.36809e-12
Vy= 3.410479e-07
Time = 3.5e-05

GAMGPCG:  Solving for cellDisplacementx, Initial residual = 0, Final residual = 0, No Iterations 0
Total solver time is 0
Total solver time is 0
Total solver time is 1
GAMGPCG:  Solving for cellDisplacementy, Initial residual = 0.3580533, Final residual = 1.166397e-09, No Iterations 1
GAMGPCG:  Solving for cellDisplacementz, Initial residual = 0, Final residual = 0, No Iterations 0
volume continuity errors : volume = 4.535015, max error = 8.638576e-09, sum local = 6.838959e-15, global = 1.956289e-18
smoothSolver:  Solving for Ux, Initial residual = 0.01352926, Final residual = 6.940925e-09, No Iterations 1
smoothSolver:  Solving for Uy, Initial residual = 0.0009622758, Final residual = 1.214124e-08, No Iterations 1
smoothSolver:  Solving for Uz, Initial residual = 0.4244243, Final residual = 2.855852e-06, No Iterations 1
GPU: 2 iters: 0.09221677 s: 22.35127 GB/s
Total exec time 238.7634
 Total comm time 0.4673672Pre time 0.3950865 Post time 0.0722807
GPUBICGS:  Solving for p, Initial residual = 0.09114456, Final residual = 0.0003787109, No Iterations 2
GPU: 23 iters: 0.8111398 s: 29.22229 GB/s
Total exec time 239.5746
 Total comm time 0.4688781Pre time 0.3964417 Post time 0.07243635
GPUBICGS:  Solving for p, Initial residual = 0.0005609452, Final residual = 9.623663e-06, No Iterations 23
time step continuity errors : sum local = 1.89579e-12, global = -2.847552e-14, cumulative = 6.652936e-10
Moving mesh time step continuity errors : sum local = 1.89579e-12, global = -2.847552e-14, cumulative = 6.652651e-10
GPU: 8 iters: 0.3003719 s: 27.44813 GB/s
Total exec time 239.8749
 Total comm time 0.469456Pre time 0.3969668 Post time 0.07248918
GPUBICGS:  Solving for p, Initial residual = 8.295749e-05, Final residual = 9.804563e-06, No Iterations 8
GPU: 489 iters: 16.7933 s: 30.00922 GB/s
Total exec time 256.6682
 Total comm time 0.5142793Pre time 0.425101 Post time 0.08917827
GPUBICGS:  Solving for p, Initial residual = 2.956048e-05, Final residual = 9.443697e-08, No Iterations 489
time step continuity errors : sum local = 1.860073e-14, global = -6.063941e-15, cumulative = 6.65259e-10
Moving mesh time step continuity errors : sum local = 1.860073e-14, global = -6.063941e-15, cumulative = 6.65253e-10
smoothSolver:  Solving for k, Initial residual = 0.0009097857, Final residual = 6.330938e-10, No Iterations 1
ExecutionTime = 510.34 s  ClockTime = 519 s

Courant Number mean: 7.683374e-05 max: 0.002849502 velocity magnitude: 0.9499025
yForce = -0.03067304
Y= 9.025973e-12
Vy= 3.221052e-07
Time = 4e-05

GAMGPCG:  Solving for cellDisplacementx, Initial residual = 0, Final residual = 0, No Iterations 0
Total solver time is 0
Total solver time is 0
Total solver time is 1
GAMGPCG:  Solving for cellDisplacementy, Initial residual = 0.242336, Final residual = 8.525676e-10, No Iterations 1
GAMGPCG:  Solving for cellDisplacementz, Initial residual = 0, Final residual = 0, No Iterations 0
volume continuity errors : volume = 4.535015, max error = 1.229013e-08, sum local = 6.857382e-15, global = -1.471048e-18
smoothSolver:  Solving for Ux, Initial residual = 0.0109579, Final residual = 5.676558e-09, No Iterations 1
smoothSolver:  Solving for Uy, Initial residual = 0.0008055979, Final residual = 9.762365e-09, No Iterations 1
smoothSolver:  Solving for Uz, Initial residual = 0.2897028, Final residual = 2.755675e-06, No Iterations 1
GPU: 2 iters: 0.09331824 s: 22.08745 GB/s
Total exec time 256.7616
 Total comm time 0.5144565Pre time 0.4252621 Post time 0.08919437
GPUBICGS:  Solving for p, Initial residual = 0.0749711, Final residual = 0.0001464287, No Iterations 2
GPU: 9 iters: 0.3329721 s: 27.85587 GB/s
Total exec time 257.0945
 Total comm time 0.5150655Pre time 0.4258123 Post time 0.08925328
GPUBICGS:  Solving for p, Initial residual = 0.0002943612, Final residual = 9.712116e-06, No Iterations 9
time step continuity errors : sum local = 1.777451e-12, global = 1.64205e-14, cumulative = 6.652694e-10
Moving mesh time step continuity errors : sum local = 1.777451e-12, global = 1.64205e-14, cumulative = 6.652858e-10
GPU: 2 iters: 0.09235904 s: 22.31684 GB/s
Total exec time 257.1869
 Total comm time 0.515225Pre time 0.425956 Post time 0.08926893
GPUBICGS:  Solving for p, Initial residual = 3.595963e-05, Final residual = 9.98789e-06, No Iterations 2
GPU: 414 iters: 14.19831 s: 30.05008 GB/s
Total exec time 271.3852
 Total comm time 0.5413988Pre time 0.4495422 Post time 0.09185661
GPUBICGS:  Solving for p, Initial residual = 1.571782e-05, Final residual = 9.973211e-08, No Iterations 414
time step continuity errors : sum local = 1.82514e-14, global = 1.823263e-14, cumulative = 6.65304e-10
Moving mesh time step continuity errors : sum local = 1.82514e-14, global = 1.823263e-14, cumulative = 6.653223e-10
smoothSolver:  Solving for k, Initial residual = 0.0007437228, Final residual = 5.397479e-10, No Iterations 1
ExecutionTime = 554.52 s  ClockTime = 564 s

Courant Number mean: 7.683376e-05 max: 0.002846382 velocity magnitude: 0.9488625
yForce = 0.09225608
Y= 1.077893e-11
Vy= 3.790778e-07
Time = 4.5e-05

GAMGPCG:  Solving for cellDisplacementx, Initial residual = 0, Final residual = 0, No Iterations 0
Total solver time is 0
Total solver time is 0
Total solver time is 1
GAMGPCG:  Solving for cellDisplacementy, Initial residual = 0.2199053, Final residual = 7.231657e-10, No Iterations 1
GAMGPCG:  Solving for cellDisplacementz, Initial residual = 0, Final residual = 0, No Iterations 0
volume continuity errors : volume = 4.535015, max error = 1.278575e-08, sum local = 6.854694e-15, global = -1.862091e-18
smoothSolver:  Solving for Ux, Initial residual = 0.009362127, Final residual = 4.835652e-09, No Iterations 1
smoothSolver:  Solving for Uy, Initial residual = 0.0006803122, Final residual = 8.07068e-09, No Iterations 1
smoothSolver:  Solving for Uz, Initial residual = 0.3555923, Final residual = 1.639573e-06, No Iterations 1
GPU: 2 iters: 0.08905149 s: 23.14573 GB/s
Total exec time 271.4742
 Total comm time 0.5415562Pre time 0.4496838 Post time 0.09187235
GPUBICGS:  Solving for p, Initial residual = 0.06276991, Final residual = 0.0001102042, No Iterations 2
GPU: 8 iters: 0.3082545 s: 26.74624 GB/s
Total exec time 271.7825
 Total comm time 0.5421411Pre time 0.4502074 Post time 0.09193373
GPUBICGS:  Solving for p, Initial residual = 0.0002190127, Final residual = 9.287884e-06, No Iterations 8
time step continuity errors : sum local = 1.592916e-12, global = 4.567603e-14, cumulative = 6.65368e-10
Moving mesh time step continuity errors : sum local = 1.592916e-12, global = 4.567603e-14, cumulative = 6.654136e-10
GPU: 2 iters: 0.08726973 s: 23.61829 GB/s
Total exec time 271.8698
 Total comm time 0.5422953Pre time 0.4503461 Post time 0.09194922
GPUBICGS:  Solving for p, Initial residual = 2.333186e-05, Final residual = 9.421757e-06, No Iterations 2
GPU: 456 iters: 15.63628 s: 30.05477 GB/s
Total exec time 287.5061
 Total comm time 0.6038771Pre time 0.4918832 Post time 0.1119939
GPUBICGS:  Solving for p, Initial residual = 1.145103e-05, Final residual = 3.754165e-08, No Iterations 456
time step continuity errors : sum local = 6.438356e-15, global = 2.918276e-16, cumulative = 6.654139e-10
Moving mesh time step continuity errors : sum local = 6.438356e-15, global = 2.918276e-16, cumulative = 6.654142e-10
smoothSolver:  Solving for k, Initial residual = 0.0006256188, Final residual = 4.717859e-10, No Iterations 1
ExecutionTime = 599.5 s  ClockTime = 609 s

Courant Number mean: 7.683376e-05 max: 0.002842881 velocity magnitude: 0.948245
yForce = -0.04507158
Y= 1.260473e-11
Vy= 3.512431e-07
Time = 5e-05

GAMGPCG:  Solving for cellDisplacementx, Initial residual = 0, Final residual = 0, No Iterations 0
Total solver time is 0
Total solver time is 0
Total solver time is 1
GAMGPCG:  Solving for cellDisplacementy, Initial residual = 0.1984205, Final residual = 6.485642e-10, No Iterations 1
GAMGPCG:  Solving for cellDisplacementz, Initial residual = 0, Final residual = 0, No Iterations 0
volume continuity errors : volume = 4.535015, max error = 8.856686e-09, sum local = 6.855143e-15, global = -2.025237e-19
smoothSolver:  Solving for Ux, Initial residual = 0.008282632, Final residual = 4.219418e-09, No Iterations 1
smoothSolver:  Solving for Uy, Initial residual = 0.0005948712, Final residual = 6.845401e-09, No Iterations 1
smoothSolver:  Solving for Uz, Initial residual = 0.2893339, Final residual = 9.142718e-07, No Iterations 1
GPU: 2 iters: 0.08816886 s: 23.37743 GB/s
Total exec time 287.5942
 Total comm time 0.604057Pre time 0.4920475 Post time 0.1120095
GPUBICGS:  Solving for p, Initial residual = 0.05636564, Final residual = 8.496388e-05, No Iterations 2
GPU: 6 iters: 0.2360493 s: 26.19573 GB/s
Total exec time 287.8303
 Total comm time 0.6045333Pre time 0.4924837 Post time 0.1120496
GPUBICGS:  Solving for p, Initial residual = 0.0001702957, Final residual = 8.849646e-06, No Iterations 6
time step continuity errors : sum local = 1.432062e-12, global = -3.173778e-14, cumulative = 6.653825e-10
Moving mesh time step continuity errors : sum local = 1.432062e-12, global = -3.173778e-14, cumulative = 6.653507e-10
GPU: 1 iters: 0.05695177 s: 18.09568 GB/s
Total exec time 287.8872
 Total comm time 0.6046374Pre time 0.4925782 Post time 0.1120592
GPUBICGS:  Solving for p, Initial residual = 1.862046e-05, Final residual = 9.349027e-06, No Iterations 1
GPU: 432 iters: 14.64036 s: 30.40983 GB/s
Total exec time 302.5276
 Total comm time 0.6310888Pre time 0.5163245 Post time 0.1147642
GPUBICGS:  Solving for p, Initial residual = 1.037215e-05, Final residual = 9.765249e-08, No Iterations 432
time step continuity errors : sum local = 1.580186e-14, global = -9.335627e-15, cumulative = 6.653414e-10
Moving mesh time step continuity errors : sum local = 1.580186e-14, global = -9.335627e-15, cumulative = 6.653321e-10
smoothSolver:  Solving for k, Initial residual = 0.0005379007, Final residual = 4.204784e-10, No Iterations 1
ExecutionTime = 643.06 s  ClockTime = 652 s

yForce = 0.002060491
Y= 1.436413e-11
Vy= 3.52515e-07
End

Finalising parallel run
