 Data for JOB [33563,1] offset 0

 ========================   JOB MAP   ========================

 Data for node: ivb106	Num slots: 6	Max slots: 0	Num procs: 6
 	Process OMPI jobid: [33563,1] App: 0 Process rank: 0
 	Process OMPI jobid: [33563,1] App: 0 Process rank: 1
 	Process OMPI jobid: [33563,1] App: 0 Process rank: 2
 	Process OMPI jobid: [33563,1] App: 0 Process rank: 3
 	Process OMPI jobid: [33563,1] App: 0 Process rank: 4
 	Process OMPI jobid: [33563,1] App: 0 Process rank: 5

 =============================================================
[ivb106:02185] MCW rank 3 bound to socket 0[core 3[hwt 0]]: [./././B/./././././.][./././././././././.]
[ivb106:02185] MCW rank 4 bound to socket 0[core 4[hwt 0]]: [././././B/././././.][./././././././././.]
[ivb106:02185] MCW rank 5 bound to socket 0[core 5[hwt 0]]: [./././././B/./././.][./././././././././.]
[ivb106:02185] MCW rank 0 bound to socket 0[core 0[hwt 0]]: [B/././././././././.][./././././././././.]
[ivb106:02185] MCW rank 1 bound to socket 0[core 1[hwt 0]]: [./B/./././././././.][./././././././././.]
[ivb106:02185] MCW rank 2 bound to socket 0[core 2[hwt 0]]: [././B/././././././.][./././././././././.]
0
1
2
3
4
5
/*---------------------------------------------------------------------------*\
| =========                 |                                                 |
| \\      /  F ield         | foam-extend: Open Source CFD                    |
|  \\    /   O peration     | Version:     3.1                                |
|   \\  /    A nd           | Web:         http://www.extend-project.de       |
|    \\/     M anipulation  |                                                 |
\*---------------------------------------------------------------------------*/
Build    : 3.1-e2da948002a2
Exec     : interFoam -parallel
Date     : May 20 2016
Time     : 18:56:36
Host     : ivb106
PID      : 2230
CtrlDict : /home-2/vplatonov/foam/foam-extend-3.1/etc/controlDict
Case     : /home/vplatonov/tests/rt12mln
nProcs   : 6
Slaves : 
5
(
ivb106.2229
ivb106.2234
ivb106.2246
ivb106.2240
ivb106.2251
)

Pstream initialized with:
    floatTransfer     : 0
    nProcsSimpleSum   : 0
    commsType         : blocking
SigFpe   : Enabling floating point exception trapping (FOAM_SIGFPE).

// * * * * * * * * * * * * * * * * * * * * * * * * * * * * * * * * * * * * * //
Create time

Create mesh for time = 0


Reading g
Reading field pd

Reading field alpha1

Reading field U

Reading/calculating face flux field phi

Reading transportProperties

Selecting incompressible transport model Newtonian
Selecting incompressible transport model Newtonian
Calculating field g.h

Selecting turbulence model type laminar
time step continuity errors : sum local = 0, global = 0, cumulative = 0
Created persistent data with name pcorr
SGPUPCG:  Solving for pcorr, Initial residual = 0, Final residual = 0, No Iterations 0
time step continuity errors : sum local = 0, global = 0, cumulative = 0
Courant Number mean: 0 max: 0 velocity magnitude: 0

Starting time loop

Courant Number mean: 0 max: 0 velocity magnitude: 0
Time = 0.001

MULES: Solving for alpha1
Liquid phase volume fraction = 0.00275421  Min(alpha1) = 0  Max(alpha1) = 1
MULES: Solving for alpha1
Liquid phase volume fraction = 0.00275421  Min(alpha1) = 0  Max(alpha1) = 1
Created persistent data with name pd
Computing AINV with droptol 0.02
GPU: 7 iters: 0.0824832 s: 75.7611 GB/s
SGPUPCG:  Solving for pd, Initial residual = 1, Final residual = 0.0430137, No Iterations 7
Computing AINV with droptol 0.02
GPU: 185 iters: 1.6516 s: 99.9956 GB/s
SGPUPCG:  Solving for pd, Initial residual = 0.0260437, Final residual = 0.00128817, No Iterations 185
GPU: 911 iters: 7.97808 s: 101.937 GB/s
SGPUPCG:  Solving for pd, Initial residual = 0.00731533, Final residual = 9.86137e-08, No Iterations 911
time step continuity errors : sum local = 7.34939e-12, global = -2.88639e-24, cumulative = -2.88639e-24
ExecutionTime = 89.25 s  ClockTime = 105 s

Courant Number mean: 4.8166e-06 max: 0.00215792 velocity magnitude: 0.0337175
Time = 0.002

MULES: Solving for alpha1
Liquid phase volume fraction = 0.00275421  Min(alpha1) = 0  Max(alpha1) = 1
MULES: Solving for alpha1
Liquid phase volume fraction = 0.00275421  Min(alpha1) = 0  Max(alpha1) = 1
GPU: 680 iters: 5.95767 s: 101.893 GB/s
SGPUPCG:  Solving for pd, Initial residual = 0.00479166, Final residual = 0.000231105, No Iterations 680
GPU: 696 iters: 6.10307 s: 101.806 GB/s
SGPUPCG:  Solving for pd, Initial residual = 0.00394572, Final residual = 0.000194008, No Iterations 696
GPU: 957 iters: 8.36195 s: 102.169 GB/s
SGPUPCG:  Solving for pd, Initial residual = 0.00349986, Final residual = 9.9934e-08, No Iterations 957
time step continuity errors : sum local = 4.14685e-08, global = -4.14625e-08, cumulative = -4.14625e-08
ExecutionTime = 133.07 s  ClockTime = 149 s

Courant Number mean: 1.35477e-05 max: 0.221112 velocity magnitude: 1.72744
Time = 0.003

MULES: Solving for alpha1
Liquid phase volume fraction = 0.00275424  Min(alpha1) = -3.56624e-30  Max(alpha1) = 1
MULES: Solving for alpha1
Liquid phase volume fraction = 0.00275426  Min(alpha1) = -1.07043e-30  Max(alpha1) = 1
GPU: 697 iters: 6.11411 s: 101.768 GB/s
SGPUPCG:  Solving for pd, Initial residual = 0.00747992, Final residual = 0.000370982, No Iterations 697
GPU: 660 iters: 5.79639 s: 101.648 GB/s
SGPUPCG:  Solving for pd, Initial residual = 0.00520716, Final residual = 0.000258497, No Iterations 660
GPU: 934 iters: 8.18476 s: 101.872 GB/s
SGPUPCG:  Solving for pd, Initial residual = 0.0051376, Final residual = 9.99586e-08, No Iterations 934
time step continuity errors : sum local = 2.2576e-08, global = -2.25707e-08, cumulative = -6.40332e-08
ExecutionTime = 176.58 s  ClockTime = 193 s

Courant Number mean: 1.63363e-05 max: 0.133579 velocity magnitude: 1.04358
Time = 0.004

MULES: Solving for alpha1
Liquid phase volume fraction = 0.00275427  Min(alpha1) = -7.09065e-30  Max(alpha1) = 1
MULES: Solving for alpha1
Liquid phase volume fraction = 0.00275428  Min(alpha1) = -5.78821e-30  Max(alpha1) = 1
GPU: 696 iters: 6.08999 s: 102.025 GB/s
SGPUPCG:  Solving for pd, Initial residual = 0.00849459, Final residual = 0.000416049, No Iterations 696
GPU: 682 iters: 5.96659 s: 102.04 GB/s
SGPUPCG:  Solving for pd, Initial residual = 0.00720068, Final residual = 0.000348657, No Iterations 682
GPU: 961 iters: 8.40757 s: 102.039 GB/s
SGPUPCG:  Solving for pd, Initial residual = 0.00670086, Final residual = 9.77721e-08, No Iterations 961
time step continuity errors : sum local = 1.06658e-08, global = -1.06609e-08, cumulative = -7.46941e-08
ExecutionTime = 220.27 s  ClockTime = 237 s

Courant Number mean: 2.02726e-05 max: 0.0760191 velocity magnitude: 0.593899
Time = 0.005

MULES: Solving for alpha1
Liquid phase volume fraction = 0.00275429  Min(alpha1) = -1.66205e-29  Max(alpha1) = 1
MULES: Solving for alpha1
Liquid phase volume fraction = 0.00275429  Min(alpha1) = -1.04049e-29  Max(alpha1) = 1
GPU: 696 iters: 6.11175 s: 101.662 GB/s
SGPUPCG:  Solving for pd, Initial residual = 0.00674652, Final residual = 0.000333195, No Iterations 696
GPU: 657 iters: 5.76143 s: 101.8 GB/s
SGPUPCG:  Solving for pd, Initial residual = 0.00591641, Final residual = 0.000295273, No Iterations 657
GPU: 950 iters: 8.3278 s: 101.837 GB/s
SGPUPCG:  Solving for pd, Initial residual = 0.00571571, Final residual = 9.85592e-08, No Iterations 950
time step continuity errors : sum local = 2.48166e-09, global = -2.47696e-09, cumulative = -7.71711e-08
ExecutionTime = 263.78 s  ClockTime = 280 s

Courant Number mean: 2.43622e-05 max: 0.0288585 velocity magnitude: 0.303104
Time = 0.006

MULES: Solving for alpha1
Liquid phase volume fraction = 0.00275429  Min(alpha1) = -1.32142e-29  Max(alpha1) = 1
MULES: Solving for alpha1
Liquid phase volume fraction = 0.00275429  Min(alpha1) = -2.20174e-29  Max(alpha1) = 1
GPU: 699 iters: 6.12741 s: 101.839 GB/s
SGPUPCG:  Solving for pd, Initial residual = 0.00747154, Final residual = 0.000367331, No Iterations 699
GPU: 675 iters: 5.91747 s: 101.831 GB/s
SGPUPCG:  Solving for pd, Initial residual = 0.0056727, Final residual = 0.000276801, No Iterations 675
GPU: 950 iters: 8.33049 s: 101.804 GB/s
SGPUPCG:  Solving for pd, Initial residual = 0.00559568, Final residual = 9.87303e-08, No Iterations 950
time step continuity errors : sum local = 3.54401e-11, global = 3.07381e-11, cumulative = -7.71403e-08
ExecutionTime = 307.54 s  ClockTime = 325 s

Courant Number mean: 2.92834e-05 max: 0.0329532 velocity magnitude: 0.257447
Time = 0.007

MULES: Solving for alpha1
Liquid phase volume fraction = 0.00275429  Min(alpha1) = -3.29827e-29  Max(alpha1) = 1
MULES: Solving for alpha1
Liquid phase volume fraction = 0.00275429  Min(alpha1) = -3.04725e-29  Max(alpha1) = 1
GPU: 702 iters: 6.18636 s: 101.301 GB/s
SGPUPCG:  Solving for pd, Initial residual = 0.00717945, Final residual = 0.000354221, No Iterations 702
GPU: 647 iters: 5.67006 s: 101.866 GB/s
SGPUPCG:  Solving for pd, Initial residual = 0.00461381, Final residual = 0.000223364, No Iterations 647
GPU: 869 iters: 7.62584 s: 101.729 GB/s
SGPUPCG:  Solving for pd, Initial residual = 0.00418434, Final residual = 9.91441e-08, No Iterations 869
time step continuity errors : sum local = 1.46777e-10, global = 1.4214e-10, cumulative = -7.69982e-08
ExecutionTime = 350.49 s  ClockTime = 368 s

Courant Number mean: 3.43699e-05 max: 0.00923245 velocity magnitude: 0.130396
Time = 0.008

MULES: Solving for alpha1
Liquid phase volume fraction = 0.00275429  Min(alpha1) = -6.51055e-29  Max(alpha1) = 1
MULES: Solving for alpha1
Liquid phase volume fraction = 0.00275429  Min(alpha1) = -4.86585e-29  Max(alpha1) = 1
GPU: 704 iters: 6.16133 s: 102.003 GB/s
SGPUPCG:  Solving for pd, Initial residual = 0.00759846, Final residual = 0.000375238, No Iterations 704
GPU: 306 iters: 2.69352 s: 101.418 GB/s
SGPUPCG:  Solving for pd, Initial residual = 0.00448572, Final residual = 0.000222866, No Iterations 306
GPU: 829 iters: 7.25958 s: 101.943 GB/s
SGPUPCG:  Solving for pd, Initial residual = 0.00419719, Final residual = 9.8928e-08, No Iterations 829
time step continuity errors : sum local = 1.57246e-10, global = 1.52649e-10, cumulative = -7.68455e-08
ExecutionTime = 389.88 s  ClockTime = 407 s

Courant Number mean: 3.94773e-05 max: 0.00904201 velocity magnitude: 0.140309
Time = 0.009

MULES: Solving for alpha1
Liquid phase volume fraction = 0.00275429  Min(alpha1) = -5.45925e-29  Max(alpha1) = 1
MULES: Solving for alpha1
Liquid phase volume fraction = 0.00275429  Min(alpha1) = -4.93353e-29  Max(alpha1) = 1
GPU: 707 iters: 6.19441 s: 101.89 GB/s
SGPUPCG:  Solving for pd, Initial residual = 0.00747592, Final residual = 0.000371761, No Iterations 707
GPU: 316 iters: 2.7854 s: 101.277 GB/s
SGPUPCG:  Solving for pd, Initial residual = 0.00469135, Final residual = 0.000234121, No Iterations 316
GPU: 837 iters: 7.34041 s: 101.793 GB/s
SGPUPCG:  Solving for pd, Initial residual = 0.00415966, Final residual = 9.91405e-08, No Iterations 837
time step continuity errors : sum local = 6.5263e-12, global = 1.93211e-12, cumulative = -7.68436e-08
ExecutionTime = 429.67 s  ClockTime = 447 s

Courant Number mean: 4.4594e-05 max: 0.00972269 velocity magnitude: 0.149313
Time = 0.01

MULES: Solving for alpha1
Liquid phase volume fraction = 0.00275429  Min(alpha1) = -8.91526e-30  Max(alpha1) = 1
MULES: Solving for alpha1
Liquid phase volume fraction = 0.00275429  Min(alpha1) = -4.21186e-29  Max(alpha1) = 1
GPU: 707 iters: 6.2081 s: 101.666 GB/s
SGPUPCG:  Solving for pd, Initial residual = 0.00809322, Final residual = 0.000399113, No Iterations 707
GPU: 302 iters: 2.65366 s: 101.596 GB/s
SGPUPCG:  Solving for pd, Initial residual = 0.00467266, Final residual = 0.000231929, No Iterations 302
GPU: 830 iters: 7.2694 s: 101.928 GB/s
SGPUPCG:  Solving for pd, Initial residual = 0.00432767, Final residual = 9.9036e-08, No Iterations 830
time step continuity errors : sum local = 4.62326e-11, global = -4.16688e-11, cumulative = -7.68853e-08
ExecutionTime = 469.24 s  ClockTime = 487 s

End

Finalising parallel run
