 Data for JOB [442,1] offset 0

 ========================   JOB MAP   ========================

 Data for node: ivb106	Num slots: 3	Max slots: 0	Num procs: 3
 	Process OMPI jobid: [442,1] App: 0 Process rank: 0
 	Process OMPI jobid: [442,1] App: 0 Process rank: 1
 	Process OMPI jobid: [442,1] App: 0 Process rank: 2

 Data for node: ivb108	Num slots: 3	Max slots: 0	Num procs: 3
 	Process OMPI jobid: [442,1] App: 0 Process rank: 3
 	Process OMPI jobid: [442,1] App: 0 Process rank: 4
 	Process OMPI jobid: [442,1] App: 0 Process rank: 5

 =============================================================
[ivb106:35368] MCW rank 2 bound to socket 0[core 2[hwt 0]]: [././B/././././././.][./././././././././.]
[ivb106:35368] MCW rank 0 bound to socket 0[core 0[hwt 0]]: [B/././././././././.][./././././././././.]
[ivb106:35368] MCW rank 1 bound to socket 0[core 1[hwt 0]]: [./B/./././././././.][./././././././././.]
[ivb108:09800] MCW rank 3 bound to socket 0[core 0[hwt 0]]: [B/././././././././.][./././././././././.]
[ivb108:09800] MCW rank 4 bound to socket 0[core 1[hwt 0]]: [./B/./././././././.][./././././././././.]
[ivb108:09800] MCW rank 5 bound to socket 0[core 2[hwt 0]]: [././B/././././././.][./././././././././.]
1
2
0
0
2
1
/*---------------------------------------------------------------------------*\
| =========                 |                                                 |
| \\      /  F ield         | foam-extend: Open Source CFD                    |
|  \\    /   O peration     | Version:     3.1                                |
|   \\  /    A nd           | Web:         http://www.extend-project.de       |
|    \\/     M anipulation  |                                                 |
\*---------------------------------------------------------------------------*/
Build    : 3.1-e2da948002a2
Exec     : pimpleDyMFoam -parallel
Date     : May 26 2016
Time     : 19:47:00
Host     : ivb106
PID      : 35410
CtrlDict : /home-2/vplatonov/foam/foam-extend-3.1/etc/controlDict
Case     : /home/vplatonov/tests/3D-mesh1-of3.1
nProcs   : 6
Slaves : 
5
(
ivb106.35415
ivb106.35408
ivb108.9829
ivb108.9828
ivb108.9834
)

Pstream initialized with:
    floatTransfer     : 0
    nProcsSimpleSum   : 0
    commsType         : blocking
SigFpe   : Enabling floating point exception trapping (FOAM_SIGFPE).

// * * * * * * * * * * * * * * * * * * * * * * * * * * * * * * * * * * * * * //
Create time

Create dynamic mesh for time = 0

Selecting dynamicFvMesh dynamicMotionSolverFvMesh
Selecting motion solver: displacementLaplacian
Selecting motion diffusion: quadratic
Selecting motion diffusion: inverseDistance
Reading field p

Reading field U

Reading/calculating face flux field phi

Selecting incompressible transport model Newtonian
Selecting turbulence model type LESModel
Selecting LES turbulence model oneEqEddy
oneEqEddyCoeffs
{
    ce              1.048;
    ck              0.094;
}

Reading field rAU if present


Starting time loop

Courant Number mean: 0 max: 0.0007592825 velocity magnitude: 0.4779
Reading old state
Before setting displacements
GAMGPCG:  Solving for cellDisplacementx, Initial residual = 0, Final residual = 0, No Iterations 0
GAMGPCG:  Solving for cellDisplacementy, Initial residual = 0, Final residual = 0, No Iterations 0
GAMGPCG:  Solving for cellDisplacementz, Initial residual = 0, Final residual = 0, No Iterations 0
Time = 5e-06

GAMGPCG:  Solving for cellDisplacementx, Initial residual = 0, Final residual = 0, No Iterations 0
GAMGPCG:  Solving for cellDisplacementy, Initial residual = 0, Final residual = 0, No Iterations 0
GAMGPCG:  Solving for cellDisplacementz, Initial residual = 0, Final residual = 0, No Iterations 0
volume continuity errors : volume = 4.535015, max error = 0, sum local = 0, global = 0
smoothSolver:  Solving for Ux, Initial residual = 1, Final residual = 2.285051e-08, No Iterations 1
smoothSolver:  Solving for Uy, Initial residual = 1, Final residual = 2.172388e-08, No Iterations 1
smoothSolver:  Solving for Uz, Initial residual = 0.9999962, Final residual = 4.2334e-08, No Iterations 1
Created persistent data with name p
Computing AINV with droptol 0.02
GPU: 475 iters: 15.73261 s: 31.11536 GB/s
Total exec time 15.73261 Total comm time 1.904272
OGPUBICGS:  Solving for p, Initial residual = 1, Final residual = 0.009825689, No Iterations 475
Computing AINV with droptol 0.02
GPU: 167 iters: 5.653567 s: 30.4422 GB/s
Total exec time 21.38618 Total comm time 2.584762
OGPUBICGS:  Solving for p, Initial residual = 0.0004707728, Final residual = 9.904385e-06, No Iterations 167
time step continuity errors : sum local = 2.224097e-09, global = -1.338507e-09, cumulative = -1.338507e-09
Moving mesh time step continuity errors : sum local = 2.224097e-09, global = -1.338507e-09, cumulative = -2.677013e-09
GPU: 230 iters: 7.855407 s: 30.17458 GB/s
Total exec time 29.24158 Total comm time 3.581563
OGPUBICGS:  Solving for p, Initial residual = 0.0001104283, Final residual = 8.05084e-06, No Iterations 230
GPU: 503 iters: 17.16292 s: 30.20362 GB/s
Total exec time 46.4045 Total comm time 5.783753
OGPUBICGS:  Solving for p, Initial residual = 4.484438e-05, Final residual = 5.581804e-08, No Iterations 503
time step continuity errors : sum local = 1.255918e-11, global = -1.923736e-13, cumulative = -2.677206e-09
Moving mesh time step continuity errors : sum local = 1.255918e-11, global = -1.923736e-13, cumulative = -2.677398e-09
smoothSolver:  Solving for k, Initial residual = 1, Final residual = 1.260337e-11, No Iterations 2
ExecutionTime = 123.48 s  ClockTime = 125 s

Courant Number mean: 7.683027e-05 max: 0.002865036 velocity magnitude: 0.955081
yForce = -4.77484
Y= -7.371808e-12
Vy= -2.948721e-06
Time = 1e-05

GAMGPCG:  Solving for cellDisplacementx, Initial residual = 0, Final residual = 0, No Iterations 0
Total solver time is 0
Total solver time is 0
Total solver time is 1
GAMGPCG:  Solving for cellDisplacementy, Initial residual = 1, Final residual = 3.31004e-09, No Iterations 1
GAMGPCG:  Solving for cellDisplacementz, Initial residual = 0, Final residual = 0, No Iterations 0
volume continuity errors : volume = 4.535015, max error = 1.082289e-08, sum local = 6.209806e-15, global = 6.494846e-18
smoothSolver:  Solving for Ux, Initial residual = 0.997552, Final residual = 4.959857e-07, No Iterations 1
smoothSolver:  Solving for Uy, Initial residual = 0.3328211, Final residual = 1.44701e-06, No Iterations 1
smoothSolver:  Solving for Uz, Initial residual = 0.3332693, Final residual = 6.514285e-07, No Iterations 1
GPU: 509 iters: 17.31136 s: 30.30182 GB/s
Total exec time 63.71586 Total comm time 8.003176
OGPUBICGS:  Solving for p, Initial residual = 0.003643649, Final residual = 2.709412e-05, No Iterations 509
GPU: 152 iters: 5.202173 s: 30.11209 GB/s
Total exec time 68.91803 Total comm time 8.671548
OGPUBICGS:  Solving for p, Initial residual = 0.001387506, Final residual = 1.351869e-05, No Iterations 152
time step continuity errors : sum local = 1.014236e-09, global = 4.719219e-10, cumulative = -2.205476e-09
Moving mesh time step continuity errors : sum local = 1.014236e-09, global = 4.719219e-10, cumulative = -1.733554e-09
GPU: 155 iters: 5.287899 s: 30.2086 GB/s
Total exec time 74.20593 Total comm time 9.33807
OGPUBICGS:  Solving for p, Initial residual = 0.0003123712, Final residual = 7.195313e-06, No Iterations 155
GPU: 559 iters: 19.0156 s: 30.29591 GB/s
Total exec time 93.22153 Total comm time 11.75885
OGPUBICGS:  Solving for p, Initial residual = 0.0001154495, Final residual = 9.885181e-08, No Iterations 559
time step continuity errors : sum local = 7.411806e-12, global = -2.897862e-13, cumulative = -1.733844e-09
Moving mesh time step continuity errors : sum local = 7.411806e-12, global = -2.897862e-13, cumulative = -1.734134e-09
smoothSolver:  Solving for k, Initial residual = 0.008780383, Final residual = 4.659091e-09, No Iterations 1
ExecutionTime = 199.42 s  ClockTime = 201 s

Courant Number mean: 7.68325e-05 max: 0.002856914 velocity magnitude: 0.9523736
yForce = 8.053447
Y= -9.681799e-12
Vy= 2.024721e-06
Time = 1.5e-05

GAMGPCG:  Solving for cellDisplacementx, Initial residual = 0, Final residual = 0, No Iterations 0
Total solver time is 0
Total solver time is 0
Total solver time is 1
GAMGPCG:  Solving for cellDisplacementy, Initial residual = 0.2799868, Final residual = 1.728636e-09, No Iterations 1
GAMGPCG:  Solving for cellDisplacementz, Initial residual = 0, Final residual = 0, No Iterations 0
volume continuity errors : volume = 4.535015, max error = 1.013086e-08, sum local = 6.99594e-15, global = -1.719783e-18
smoothSolver:  Solving for Ux, Initial residual = 0.9921604, Final residual = 4.934695e-07, No Iterations 1
smoothSolver:  Solving for Uy, Initial residual = 0.1847123, Final residual = 8.686247e-07, No Iterations 1
smoothSolver:  Solving for Uz, Initial residual = 0.6149615, Final residual = 1.234068e-06, No Iterations 1
GPU: 451 iters: 15.34926 s: 30.28106 GB/s
Total exec time 108.5708 Total comm time 13.68972
OGPUBICGS:  Solving for p, Initial residual = 0.002799813, Final residual = 2.790628e-05, No Iterations 451
GPU: 375 iters: 12.75639 s: 30.29603 GB/s
Total exec time 121.3272 Total comm time 15.30242
OGPUBICGS:  Solving for p, Initial residual = 0.04912163, Final residual = 0.0004910657, No Iterations 375
time step continuity errors : sum local = 3.466573e-10, global = -1.438478e-10, cumulative = -1.877981e-09
Moving mesh time step continuity errors : sum local = 3.466573e-10, global = -1.438478e-10, cumulative = -2.021829e-09
GPU: 417 iters: 14.17979 s: 30.30738 GB/s
Total exec time 135.507 Total comm time 17.08132
OGPUBICGS:  Solving for p, Initial residual = 0.01966463, Final residual = 0.0001784766, No Iterations 417
GPU: 566 iters: 19.29461 s: 30.2317 GB/s
Total exec time 154.8016 Total comm time 19.55401
OGPUBICGS:  Solving for p, Initial residual = 0.007332346, Final residual = 9.797249e-08, No Iterations 566
time step continuity errors : sum local = 3.231689e-14, global = 8.145105e-15, cumulative = -2.021821e-09
Moving mesh time step continuity errors : sum local = 3.231689e-14, global = 8.145105e-15, cumulative = -2.021813e-09
smoothSolver:  Solving for k, Initial residual = 0.003835141, Final residual = 2.146406e-09, No Iterations 1
ExecutionTime = 290.1 s  ClockTime = 292 s

Courant Number mean: 7.683292e-05 max: 0.002858867 velocity magnitude: 0.9530246
yForce = -0.5277023
Y= -3.729148e-13
Vy= 1.698833e-06
Time = 2e-05

GAMGPCG:  Solving for cellDisplacementx, Initial residual = 0, Final residual = 0, No Iterations 0
Total solver time is 0
Total solver time is 0
Total solver time is 1
GAMGPCG:  Solving for cellDisplacementy, Initial residual = 1, Final residual = 3.371728e-09, No Iterations 1
GAMGPCG:  Solving for cellDisplacementz, Initial residual = 0, Final residual = 0, No Iterations 0
volume continuity errors : volume = 4.535015, max error = 9.344491e-09, sum local = 6.986149e-15, global = -5.399647e-18
smoothSolver:  Solving for Ux, Initial residual = 0.05109313, Final residual = 5.119438e-08, No Iterations 1
smoothSolver:  Solving for Uy, Initial residual = 0.01326892, Final residual = 9.307146e-08, No Iterations 1
smoothSolver:  Solving for Uz, Initial residual = 0.9320792, Final residual = 9.128664e-07, No Iterations 1
GPU: 43 iters: 1.496609 s: 29.61025 GB/s
Total exec time 156.2982 Total comm time 19.74483
OGPUBICGS:  Solving for p, Initial residual = 0.2267339, Final residual = 0.002174761, No Iterations 43
GPU: 114 iters: 3.914428 s: 30.01363 GB/s
Total exec time 160.2126 Total comm time 20.25536
OGPUBICGS:  Solving for p, Initial residual = 0.01244677, Final residual = 0.0001149655, No Iterations 114
time step continuity errors : sum local = 3.098003e-11, global = 1.142283e-12, cumulative = -2.020671e-09
Moving mesh time step continuity errors : sum local = 3.098003e-11, global = 1.142283e-12, cumulative = -2.019528e-09
GPU: 202 iters: 6.872876 s: 30.2897 GB/s
Total exec time 167.0855 Total comm time 21.11715
OGPUBICGS:  Solving for p, Initial residual = 0.004255611, Final residual = 4.105326e-05, No Iterations 202
GPU: 563 iters: 19.17787 s: 30.25451 GB/s
Total exec time 186.2634 Total comm time 23.5705
OGPUBICGS:  Solving for p, Initial residual = 0.001818172, Final residual = 8.037453e-08, No Iterations 563
time step continuity errors : sum local = 2.157545e-14, global = -5.734249e-16, cumulative = -2.019529e-09
Moving mesh time step continuity errors : sum local = 2.157545e-14, global = -5.734249e-16, cumulative = -2.01953e-09
smoothSolver:  Solving for k, Initial residual = 0.002273157, Final residual = 1.3534e-09, No Iterations 1
ExecutionTime = 350.83 s  ClockTime = 352 s

Courant Number mean: 7.683349e-05 max: 0.002856745 velocity magnitude: 0.9523171
yForce = -1.468052
Y= 5.85474e-12
Vy= 7.922294e-07
Time = 2.5e-05

GAMGPCG:  Solving for cellDisplacementx, Initial residual = 0, Final residual = 0, No Iterations 0
Total solver time is 0
Total solver time is 0
Total solver time is 1
GAMGPCG:  Solving for cellDisplacementy, Initial residual = 0.872352, Final residual = 3.375598e-09, No Iterations 1
GAMGPCG:  Solving for cellDisplacementz, Initial residual = 0, Final residual = 0, No Iterations 0
volume continuity errors : volume = 4.535015, max error = 9.488683e-09, sum local = 7.022502e-15, global = 2.892527e-18
smoothSolver:  Solving for Ux, Initial residual = 0.02716142, Final residual = 1.807596e-08, No Iterations 1
smoothSolver:  Solving for Uy, Initial residual = 0.004600531, Final residual = 3.187685e-08, No Iterations 1
smoothSolver:  Solving for Uz, Initial residual = 0.7420531, Final residual = 7.040975e-07, No Iterations 1
GPU: 8 iters: 0.3042157 s: 27.10132 GB/s
Total exec time 186.5676 Total comm time 23.60727
OGPUBICGS:  Solving for p, Initial residual = 0.1534278, Final residual = 0.001471598, No Iterations 8
GPU: 148 iters: 5.067885 s: 30.09657 GB/s
Total exec time 191.6355 Total comm time 24.25437
OGPUBICGS:  Solving for p, Initial residual = 0.003712945, Final residual = 3.638913e-05, No Iterations 148
time step continuity errors : sum local = 8.648298e-12, global = -2.192822e-13, cumulative = -2.019749e-09
Moving mesh time step continuity errors : sum local = 8.648298e-12, global = -2.192822e-13, cumulative = -2.019968e-09
GPU: 159 iters: 5.416426 s: 30.25285 GB/s
Total exec time 197.0519 Total comm time 24.93583
OGPUBICGS:  Solving for p, Initial residual = 0.0009384393, Final residual = 9.671097e-06, No Iterations 159
GPU: 517 iters: 17.73366 s: 30.04514 GB/s
Total exec time 214.7855 Total comm time 27.24244
OGPUBICGS:  Solving for p, Initial residual = 0.0003287102, Final residual = 9.196841e-08, No Iterations 517
time step continuity errors : sum local = 2.181598e-14, global = 1.501778e-16, cumulative = -2.019968e-09
Moving mesh time step continuity errors : sum local = 2.181598e-14, global = 1.501778e-16, cumulative = -2.019968e-09
smoothSolver:  Solving for k, Initial residual = 0.00155481, Final residual = 9.811817e-10, No Iterations 1
ExecutionTime = 408.07 s  ClockTime = 410 s

Courant Number mean: 7.683361e-05 max: 0.002854615 velocity magnitude: 0.9516072
yForce = 1.143666
Y= 1.158157e-11
Vy= 1.498504e-06
Time = 3e-05

GAMGPCG:  Solving for cellDisplacementx, Initial residual = 0, Final residual = 0, No Iterations 0
Total solver time is 0
Total solver time is 0
Total solver time is 1
GAMGPCG:  Solving for cellDisplacementy, Initial residual = 0.5372694, Final residual = 1.792329e-09, No Iterations 1
GAMGPCG:  Solving for cellDisplacementz, Initial residual = 0, Final residual = 0, No Iterations 0
volume continuity errors : volume = 4.535015, max error = 9.060336e-09, sum local = 7.040135e-15, global = 1.426055e-18
smoothSolver:  Solving for Ux, Initial residual = 0.01762016, Final residual = 8.823504e-09, No Iterations 1
smoothSolver:  Solving for Uy, Initial residual = 0.001242303, Final residual = 1.621969e-08, No Iterations 1
smoothSolver:  Solving for Uz, Initial residual = 0.2661364, Final residual = 1.721652e-06, No Iterations 1
GPU: 2 iters: 0.09991399 s: 20.62936 GB/s
Total exec time 214.8855 Total comm time 27.25335
OGPUBICGS:  Solving for p, Initial residual = 0.1088436, Final residual = 0.0007036352, No Iterations 2
GPU: 43 iters: 1.48952 s: 29.75118 GB/s
Total exec time 216.375 Total comm time 27.4423
OGPUBICGS:  Solving for p, Initial residual = 0.001329695, Final residual = 1.300836e-05, No Iterations 43
time step continuity errors : sum local = 2.790609e-12, global = 2.694195e-15, cumulative = -2.019965e-09
Moving mesh time step continuity errors : sum local = 2.790609e-12, global = 2.694195e-15, cumulative = -2.019962e-09
GPU: 39 iters: 1.360745 s: 29.53724 GB/s
Total exec time 217.7357 Total comm time 27.61675
OGPUBICGS:  Solving for p, Initial residual = 0.0002644077, Final residual = 8.726932e-06, No Iterations 39
GPU: 425 iters: 14.69492 s: 29.806 GB/s
Total exec time 232.4307 Total comm time 29.56731
OGPUBICGS:  Solving for p, Initial residual = 0.0001025937, Final residual = 8.639252e-08, No Iterations 425
time step continuity errors : sum local = 1.852624e-14, global = -1.832932e-14, cumulative = -2.019981e-09
Moving mesh time step continuity errors : sum local = 1.852624e-14, global = -1.832932e-14, cumulative = -2.019999e-09
smoothSolver:  Solving for k, Initial residual = 0.00115692, Final residual = 7.628949e-10, No Iterations 1
ExecutionTime = 454.01 s  ClockTime = 456 s

Courant Number mean: 7.68337e-05 max: 0.002852246 velocity magnitude: 0.9508175
yForce = -0.3369207
Y= 1.855392e-11
Vy= 1.290435e-06
Time = 3.5e-05

GAMGPCG:  Solving for cellDisplacementx, Initial residual = 0, Final residual = 0, No Iterations 0
Total solver time is 0
Total solver time is 0
Total solver time is 1
GAMGPCG:  Solving for cellDisplacementy, Initial residual = 0.4486778, Final residual = 1.475848e-09, No Iterations 1
GAMGPCG:  Solving for cellDisplacementz, Initial residual = 0, Final residual = 0, No Iterations 0
volume continuity errors : volume = 4.535015, max error = 9.549055e-09, sum local = 7.048315e-15, global = -2.600703e-19
smoothSolver:  Solving for Ux, Initial residual = 0.01353027, Final residual = 6.935344e-09, No Iterations 1
smoothSolver:  Solving for Uy, Initial residual = 0.0009609382, Final residual = 1.213207e-08, No Iterations 1
smoothSolver:  Solving for Uz, Initial residual = 0.5971222, Final residual = 4.313412e-06, No Iterations 1
GPU: 1 iters: 0.0692058 s: 14.89154 GB/s
Total exec time 232.4999 Total comm time 29.57613
OGPUBICGS:  Solving for p, Initial residual = 0.09113987, Final residual = 0.0003776007, No Iterations 1
GPU: 22 iters: 0.7774528 s: 29.1629 GB/s
Total exec time 233.2773 Total comm time 29.6717
OGPUBICGS:  Solving for p, Initial residual = 0.000559653, Final residual = 9.359382e-06, No Iterations 22
time step continuity errors : sum local = 1.843692e-12, global = -4.289317e-14, cumulative = -2.020042e-09
Moving mesh time step continuity errors : sum local = 1.843692e-12, global = -4.289317e-14, cumulative = -2.020085e-09
GPU: 7 iters: 0.2733004 s: 26.3961 GB/s
Total exec time 233.5506 Total comm time 29.7074
OGPUBICGS:  Solving for p, Initial residual = 8.232475e-05, Final residual = 9.616415e-06, No Iterations 7
GPU: 458 iters: 15.75577 s: 29.95765 GB/s
Total exec time 249.3064 Total comm time 31.75644
OGPUBICGS:  Solving for p, Initial residual = 2.923769e-05, Final residual = 9.74967e-08, No Iterations 458
time step continuity errors : sum local = 1.920302e-14, global = -1.099059e-14, cumulative = -2.020096e-09
Moving mesh time step continuity errors : sum local = 1.920302e-14, global = -1.099059e-14, cumulative = -2.020107e-09
smoothSolver:  Solving for k, Initial residual = 0.0009097465, Final residual = 6.33083e-10, No Iterations 1
ExecutionTime = 499.87 s  ClockTime = 508 s

Courant Number mean: 7.683375e-05 max: 0.002849502 velocity magnitude: 0.9499026
yForce = -0.1435637
Y= 2.478444e-11
Vy= 1.201775e-06
Time = 4e-05

GAMGPCG:  Solving for cellDisplacementx, Initial residual = 0, Final residual = 0, No Iterations 0
Total solver time is 0
Total solver time is 0
Total solver time is 1
GAMGPCG:  Solving for cellDisplacementy, Initial residual = 0.3182469, Final residual = 1.048008e-09, No Iterations 1
GAMGPCG:  Solving for cellDisplacementz, Initial residual = 0, Final residual = 0, No Iterations 0
volume continuity errors : volume = 4.535015, max error = 9.121534e-09, sum local = 7.05688e-15, global = -1.264827e-18
smoothSolver:  Solving for Ux, Initial residual = 0.0109574, Final residual = 5.674863e-09, No Iterations 1
smoothSolver:  Solving for Uy, Initial residual = 0.0008054505, Final residual = 9.758453e-09, No Iterations 1
smoothSolver:  Solving for Uz, Initial residual = 0.3740546, Final residual = 3.617801e-06, No Iterations 1
GPU: 1 iters: 0.06657095 s: 15.48094 GB/s
Total exec time 249.373 Total comm time 31.7636
OGPUBICGS:  Solving for p, Initial residual = 0.07496867, Final residual = 0.0001464834, No Iterations 1
GPU: 8 iters: 0.303305 s: 27.1827 GB/s
Total exec time 249.6763 Total comm time 31.80064
OGPUBICGS:  Solving for p, Initial residual = 0.0002943889, Final residual = 9.775841e-06, No Iterations 8
time step continuity errors : sum local = 1.789087e-12, global = 4.945074e-15, cumulative = -2.020102e-09
Moving mesh time step continuity errors : sum local = 1.789087e-12, global = 4.945074e-15, cumulative = -2.020097e-09
GPU: 2 iters: 0.1005703 s: 20.49473 GB/s
Total exec time 249.7768 Total comm time 31.81359
OGPUBICGS:  Solving for p, Initial residual = 3.593718e-05, Final residual = 9.129309e-06, No Iterations 2
GPU: 256 iters: 8.742435 s: 30.17794 GB/s
Total exec time 258.5193 Total comm time 32.93734
OGPUBICGS:  Solving for p, Initial residual = 1.524328e-05, Final residual = 9.920716e-08, No Iterations 256
time step continuity errors : sum local = 1.815506e-14, global = 1.56714e-14, cumulative = -2.020081e-09
Moving mesh time step continuity errors : sum local = 1.815506e-14, global = 1.56714e-14, cumulative = -2.020066e-09
smoothSolver:  Solving for k, Initial residual = 0.0007436954, Final residual = 5.39743e-10, No Iterations 1
ExecutionTime = 537.89 s  ClockTime = 546 s

Courant Number mean: 7.683377e-05 max: 0.002846382 velocity magnitude: 0.9488625
yForce = 0.1828561
Y= 3.107562e-11
Vy= 1.314696e-06
Time = 4.5e-05

GAMGPCG:  Solving for cellDisplacementx, Initial residual = 0, Final residual = 0, No Iterations 0
Total solver time is 0
Total solver time is 0
Total solver time is 1
GAMGPCG:  Solving for cellDisplacementy, Initial residual = 0.2665514, Final residual = 8.666491e-10, No Iterations 1
GAMGPCG:  Solving for cellDisplacementz, Initial residual = 0, Final residual = 0, No Iterations 0
volume continuity errors : volume = 4.535015, max error = 9.427807e-09, sum local = 7.063333e-15, global = 1.351884e-18
smoothSolver:  Solving for Ux, Initial residual = 0.009364159, Final residual = 4.835021e-09, No Iterations 1
smoothSolver:  Solving for Uy, Initial residual = 0.0006802386, Final residual = 8.068622e-09, No Iterations 1
smoothSolver:  Solving for Uz, Initial residual = 0.4979027, Final residual = 2.410992e-06, No Iterations 1
GPU: 1 iters: 0.06864669 s: 15.01283 GB/s
Total exec time 258.5879 Total comm time 32.94665
OGPUBICGS:  Solving for p, Initial residual = 0.06276778, Final residual = 0.0001103016, No Iterations 1
GPU: 7 iters: 0.2709875 s: 26.6214 GB/s
Total exec time 258.8589 Total comm time 32.98248
OGPUBICGS:  Solving for p, Initial residual = 0.0002189824, Final residual = 9.343591e-06, No Iterations 7
time step continuity errors : sum local = 1.602469e-12, global = 4.877848e-14, cumulative = -2.020017e-09
Moving mesh time step continuity errors : sum local = 1.602469e-12, global = 4.877848e-14, cumulative = -2.019968e-09
GPU: 1 iters: 0.06630585 s: 15.54283 GB/s
Total exec time 258.9252 Total comm time 32.99029
OGPUBICGS:  Solving for p, Initial residual = 2.337164e-05, Final residual = 9.475757e-06, No Iterations 1
GPU: 409 iters: 13.89979 s: 30.32475 GB/s
Total exec time 272.825 Total comm time 34.73024
OGPUBICGS:  Solving for p, Initial residual = 1.1503e-05, Final residual = 9.578289e-08, No Iterations 409
time step continuity errors : sum local = 1.642666e-14, global = 3.593224e-15, cumulative = -2.019965e-09
Moving mesh time step continuity errors : sum local = 1.642666e-14, global = 3.593224e-15, cumulative = -2.019961e-09
smoothSolver:  Solving for k, Initial residual = 0.0006255988, Final residual = 4.717821e-10, No Iterations 1
ExecutionTime = 580.77 s  ClockTime = 589 s

Courant Number mean: 7.683376e-05 max: 0.002842881 velocity magnitude: 0.9482449
yForce = -0.07139214
Y= 3.753888e-11
Vy= 1.270606e-06
Time = 5e-05

GAMGPCG:  Solving for cellDisplacementx, Initial residual = 0, Final residual = 0, No Iterations 0
Total solver time is 0
Total solver time is 0
Total solver time is 1
GAMGPCG:  Solving for cellDisplacementy, Initial residual = 0.231553, Final residual = 3.283115e-10, No Iterations 1
GAMGPCG:  Solving for cellDisplacementz, Initial residual = 0, Final residual = 0, No Iterations 0
volume continuity errors : volume = 4.535015, max error = 1.189192e-08, sum local = 7.039257e-15, global = -1.449263e-18
smoothSolver:  Solving for Ux, Initial residual = 0.00828236, Final residual = 4.219067e-09, No Iterations 1
smoothSolver:  Solving for Uy, Initial residual = 0.0005950124, Final residual = 6.843361e-09, No Iterations 1
smoothSolver:  Solving for Uz, Initial residual = 0.310802, Final residual = 7.545205e-07, No Iterations 1
GPU: 1 iters: 0.06629251 s: 15.54596 GB/s
Total exec time 272.8913 Total comm time 34.73717
OGPUBICGS:  Solving for p, Initial residual = 0.05636484, Final residual = 8.505594e-05, No Iterations 1
GPU: 5 iters: 0.2028451 s: 25.40315 GB/s
Total exec time 273.0941 Total comm time 34.76009
OGPUBICGS:  Solving for p, Initial residual = 0.0001703444, Final residual = 8.952974e-06, No Iterations 5
time step continuity errors : sum local = 1.448758e-12, global = -2.14255e-14, cumulative = -2.019982e-09
Moving mesh time step continuity errors : sum local = 1.448758e-12, global = -2.14255e-14, cumulative = -2.020004e-09
GPU: 0 iters: 0.03266397 s: 0 GB/s
Total exec time 273.1268 Total comm time 34.7639
OGPUBICGS:  Solving for p, Initial residual = 1.872535e-05, Final residual = 9.451982e-06, No Iterations 0
GPU: 274 iters: 9.336519 s: 30.24459 GB/s
Total exec time 282.4633 Total comm time 35.98134
OGPUBICGS:  Solving for p, Initial residual = 1.047089e-05, Final residual = 9.91193e-08, No Iterations 274
time step continuity errors : sum local = 1.603895e-14, global = -1.601922e-14, cumulative = -2.02002e-09
Moving mesh time step continuity errors : sum local = 1.603895e-14, global = -1.601922e-14, cumulative = -2.020036e-09
smoothSolver:  Solving for k, Initial residual = 0.0005378855, Final residual = 4.204754e-10, No Iterations 1
ExecutionTime = 618.96 s  ClockTime = 627 s

yForce = -0.006374889
Y= 4.388206e-11
Vy= 1.266667e-06
End

Finalising parallel run
