 Data for JOB [3371,1] offset 0

 ========================   JOB MAP   ========================

 Data for node: ivb106	Num slots: 4	Max slots: 0	Num procs: 4
 	Process OMPI jobid: [3371,1] App: 0 Process rank: 0
 	Process OMPI jobid: [3371,1] App: 0 Process rank: 1
 	Process OMPI jobid: [3371,1] App: 0 Process rank: 2
 	Process OMPI jobid: [3371,1] App: 0 Process rank: 3

 =============================================================
[ivb106:34489] MCW rank 2 bound to socket 0[core 2[hwt 0]]: [././B/././././././.][./././././././././.]
[ivb106:34489] MCW rank 3 bound to socket 0[core 3[hwt 0]]: [./././B/./././././.][./././././././././.]
[ivb106:34489] MCW rank 0 bound to socket 0[core 0[hwt 0]]: [B/././././././././.][./././././././././.]
[ivb106:34489] MCW rank 1 bound to socket 0[core 1[hwt 0]]: [./B/./././././././.][./././././././././.]
1
0
2
3
/*---------------------------------------------------------------------------*\
| =========                 |                                                 |
| \\      /  F ield         | foam-extend: Open Source CFD                    |
|  \\    /   O peration     | Version:     3.1                                |
|   \\  /    A nd           | Web:         http://www.extend-project.de       |
|    \\/     M anipulation  |                                                 |
\*---------------------------------------------------------------------------*/
Build    : 3.1-e2da948002a2
Exec     : interFoam -parallel
Date     : May 21 2016
Time     : 12:16:46
Host     : ivb106
PID      : 34528
CtrlDict : /home-2/vplatonov/foam/foam-extend-3.1/etc/controlDict
Case     : /home/vplatonov/tests/rt12mln
nProcs   : 4
Slaves : 
3
(
ivb106.34533
ivb106.34522
ivb106.34521
)

Pstream initialized with:
    floatTransfer     : 0
    nProcsSimpleSum   : 0
    commsType         : blocking
SigFpe   : Enabling floating point exception trapping (FOAM_SIGFPE).

// * * * * * * * * * * * * * * * * * * * * * * * * * * * * * * * * * * * * * //
Create time

Create mesh for time = 0


Reading g
Reading field pd

Reading field alpha1

Reading field U

Reading/calculating face flux field phi

Reading transportProperties

Selecting incompressible transport model Newtonian
Selecting incompressible transport model Newtonian
Calculating field g.h

Selecting turbulence model type laminar
time step continuity errors : sum local = 0, global = 0, cumulative = 0
[1] Building level 0
Created persistent data with name pcorr
[0] Building level 0
[2] Building level 0
[3] Building level 0
Creating AMGLevel 
[0] Building level 1
[1] Building level 1
[2] Building level 1
[3] Building level 1
Creating AMGLevel 
[0] Building level 2
[1] Building level 2
[2] Building level 2
[3] Building level 2
[2] Building level 3
[1] Building level 3
[3] Building level 3
Creating AMGLevel 
[0] Building level 3
[2] Building level 4
[1] Building level 4
[3] Building level 4
Creating AMGLevel 
[0] Building level 4
[2] Building level 5
[1] Building level 5
[3] Building level 5
Creating AMGLevel 
[0] Building level 5
[2] Building level 6
[1] Building level 6
[3] Building level 6
Creating AMGLevel 
[0] Building level 6
[2] Building level 7
[1] Building level 7
[2] Building level 8
[3] Building level 7
Creating AMGLevel 
[0] Building level 7
[1] Building level 8
[2] Building level 9
[2] Building level 10
[3] Building level 8
[2] Building level 11
[1] Building level 9
Creating AMGLevel 
[0] Building level 8
[2] Building level 12
[2] Building level 13
[2] Building level 14
[1] Building level 10
[3] Building level 9
[1] Building level 11
Creating AMGLevel 
[0] Building level 9
[1] Building level 12
[1] Building level 13
[1] Building level 14
[3] Building level 10
Creating AMGLevel 
[0] Building level 10
[3] Building level 11
[3] Building level 12
Creating AMGLevel 
[0] Building level 11
[3] Building level 13
[3] Building level 14
Creating AMGLevel 
[0] Building level 12
Creating AMGLevel 
[0] Building level 13
Creating AMGLevel 
[0] Building level 14
Creating AMGLevel 
14 Level construction complete
PCGAMG:  Solving for pcorr, Initial residual = 0, Final residual = 0, No Iterations 0
time step continuity errors : sum local = 0, global = 0, cumulative = 0
Courant Number mean: 0 max: 0 velocity magnitude: 0

Starting time loop

Courant Number mean: 0 max: 0 velocity magnitude: 0
Time = 0.001

MULES: Solving for alpha1
Liquid phase volume fraction = 0.00275421  Min(alpha1) = 0  Max(alpha1) = 1
MULES: Solving for alpha1
Liquid phase volume fraction = 0.00275421  Min(alpha1) = 0  Max(alpha1) = 1
Created persistent data with name pd
[0] Building level 0
[1] Building level 0
[3] Building level 0
[2] Building level 0
Creating AMGLevel 
[0] Building level 1
[1] Building level 1
[3] Building level 1
[2] Building level 1
Creating AMGLevel 
[1] Building level 2
[0] Building level 2
[3] Building level 2
[2] Building level 2
Creating AMGLevel 
[1] Building level 3
[0] Building level 3
[3] Building level 3
[2] Building level 3
Creating AMGLevel 
[0] Building level 4
[1] Building level 4
[2] Building level 4
[3] Building level 4
Creating AMGLevel 
[0] Building level 5
[1] Building level 5
[2] Building level 5
[3] Building level 5
Creating AMGLevel 
[0] Building level 6
[1] Building level 6
[2] Building level 6
[3] Building level 6
Creating AMGLevel 
[0] Building level 7
[1] Building level 7
[2] Building level 7
[3] Building level 7
Creating AMGLevel 
[0] Building level 8
[1] Building level 8
[2] Building level 8
[3] Building level 8
Creating AMGLevel 
[0] Building level 9
[1] Building level 9
[2] Building level 9
Creating AMGLevel 
[0] Building level 10
[3] Building level 9
[1] Building level 10
[2] Building level 10
Creating AMGLevel 
[0] Building level 11
[1] Building level 11
Creating AMGLevel 
[0] Building level 12
[2] Building level 11
[1] Building level 12
Creating AMGLevel 
[0] Building level 13
[3] Building level 10
[2] Building level 12
[1] Building level 13
Creating AMGLevel 
[0] Building level 14
[2] Building level 13
[1] Building level 14
Creating AMGLevel 
14 Level construction complete
[2] Building level 14
[3] Building level 11
[3] Building level 12
[3] Building level 13
[3] Building level 14
GPU: 1 iters: 0.520346 s: 1.2577 GB/s
PCGAMG:  Solving for pd, Initial residual = 1, Final residual = 0.034778, No Iterations 1
[1] Building level 0
[0] Building level 0
[3] Building level 0
[2] Building level 0
[0] Building level 1
[3] Building level 1
[2] Building level 1
[1] Building level 1
[0] Building level 2
[1] Building level 2
[3] Building level 2
[2] Building level 2
[0] Building level 3
[1] Building level 3
[3] Building level 3
[2] Building level 3
[0] Building level 4
[1] Building level 4
[3] Building level 4
[2] Building level 4
[0] Building level 5
[1] Building level 5
[3] Building level 5
[2] Building level 5
[0] Building level 6
[1] Building level 6
[3] Building level 6
[1] Building level 7
[0] Building level 7
[2] Building level 6
[1] Building level 8
[0] Building level 8
[1] Building level 9
[0] Building level 9
[3] Building level 7
[1] Building level 10
[0] Building level 10
[1] Building level 11
[0] Building level 11
[1] Building level 12
[2] Building level 7
[1] Building level 13
[1] Building level 14
[0] Building level 12
[0] Building level 13
[0] Building level 14
14 Level construction complete
[3] Building level 8
[3] Building level 9
[2] Building level 8
[3] Building level 10
[3] Building level 11
[3] Building level 12
[2] Building level 9
[3] Building level 13
[3] Building level 14
[2] Building level 10
[2] Building level 11
[2] Building level 12
[2] Building level 13
[2] Building level 14
GPU: 3 iters: 1.02445 s: 1.91646 GB/s
PCGAMG:  Solving for pd, Initial residual = 0.022276, Final residual = 0.00102693, No Iterations 3
[2] Building level 0
[1] Building level 0
[0] Building level 0
[3] Building level 0
[1] Building level 1
[3] Building level 1
[0] Building level 1
[2] Building level 1
[1] Building level 2
[0] Building level 2
[3] Building level 2
[2] Building level 2
[1] Building level 3
[0] Building level 3
[3] Building level 3
[2] Building level 3
[1] Building level 4
[0] Building level 4
[3] Building level 4
[2] Building level 4
[1] Building level 5
[0] Building level 5
[3] Building level 5
[2] Building level 5
[1] Building level 6
[0] Building level 6
[3] Building level 6
[1] Building level 7
[0] Building level 7
[2] Building level 6
[1] Building level 8
[3] Building level 7
[1] Building level 9
[1] Building level 10
[1] Building level 11
[0] Building level 8
[1] Building level 12
[1] Building level 13
[1] Building level 14
[3] Building level 8
[0] Building level 9
[0] Building level 10
[3] Building level 9
[0] Building level 11
[2] Building level 7
[0] Building level 12
[0] Building level 13
[0] Building level 14
14 Level construction complete
[3] Building level 10
[3] Building level 11
[3] Building level 12
[3] Building level 13
[3] Building level 14
[2] Building level 8
[2] Building level 9
[2] Building level 10
[2] Building level 11
[2] Building level 12
[2] Building level 13
[2] Building level 14
GPU: 30 iters: 7.91437 s: 2.48069 GB/s
PCGAMG:  Solving for pd, Initial residual = 0.00570758, Final residual = 9.18893e-08, No Iterations 30
time step continuity errors : sum local = 6.83076e-12, global = -8.13377e-25, cumulative = -8.13377e-25
ExecutionTime = 133.2 s  ClockTime = 145 s

Courant Number mean: 4.8684e-06 max: 0.00215808 velocity magnitude: 0.03372
Time = 0.002

MULES: Solving for alpha1
Liquid phase volume fraction = 0.00275421  Min(alpha1) = 0  Max(alpha1) = 1
MULES: Solving for alpha1
Liquid phase volume fraction = 0.00275421  Min(alpha1) = -2.60249e-29  Max(alpha1) = 1
[3] Building level 0
[2] Building level 0
[0] Building level 0
[1] Building level 0
[3] Building level 1
[2] Building level 1
[0] Building level 1
Reconstruction on level 1
[1] Building level 1
[3] Building level 2
Creating AMGLevel 
[2] Building level 2
[0] Building level 2
Reconstruction on level 2
[1] Building level 2
[1] Building level 3
[3] Building level 3
Creating AMGLevel 
[0] Building level 3
Reconstruction on level 3
[2] Building level 3
[1] Building level 4
Creating AMGLevel 
[0] Building level 4
Reconstruction on level 4
[3] Building level 4
[2] Building level 4
[1] Building level 5
Creating AMGLevel 
[0] Building level 5
Reconstruction on level 5
[3] Building level 5
[2] Building level 5
[1] Building level 6
Creating AMGLevel 
[0] Building level 6
Reconstruction on level 6
[3] Building level 6
[1] Building level 7
[2] Building level 6
Creating AMGLevel 
[0] Building level 7
Reconstruction on level 7
[1] Building level 8
[3] Building level 7
[1] Building level 9
Creating AMGLevel 
[0] Building level 8
Reconstruction on level 8
[2] Building level 7
[1] Building level 10
[1] Building level 11
[1] Building level 12
[1] Building level 13
[3] Building level 8
[1] Building level 14
Creating AMGLevel 
[0] Building level 9
Reconstruction on level 9
Creating AMGLevel 
[0] Building level 10
Reconstruction on level 10
[3] Building level 9
[2] Building level 8
Creating AMGLevel 
[0] Building level 11
Reconstruction on level 11
Creating AMGLevel 
[0] Building level 12
Reconstruction on level 12
Creating AMGLevel 
[0] Building level 13
Reconstruction on level 13
[3] Building level 10
Creating AMGLevel 
[0] Building level 14
Reconstruction on level 14
Creating AMGLevel 
14 Level construction complete
[3] Building level 11
[2] Building level 9
[3] Building level 12
[3] Building level 13
[3] Building level 14
[2] Building level 10
[2] Building level 11
[2] Building level 12
[2] Building level 13
[2] Building level 14
GPU: 3 iters: 1.07999 s: 1.8179 GB/s
PCGAMG:  Solving for pd, Initial residual = 0.00354655, Final residual = 0.000137375, No Iterations 3
[2] Building level 0
[3] Building level 0
[0] Building level 0
[1] Building level 0
[3] Building level 1
[2] Building level 1
[0] Building level 1
[1] Building level 1
[2] Building level 2
[0] Building level 2
[3] Building level 2
[1] Building level 2
[2] Building level 3
[0] Building level 3
[3] Building level 3
[1] Building level 3
[0] Building level 4
[2] Building level 4
[1] Building level 4
[3] Building level 4
[0] Building level 5
[1] Building level 5
[2] Building level 5
[3] Building level 5
[0] Building level 6
[0] Building level 7
[1] Building level 6
[2] Building level 6
[0] Building level 8
[3] Building level 6
[0] Building level 9
[0] Building level 10
[1] Building level 7
[0] Building level 11
[0] Building level 12
[0] Building level 13
[0] Building level 14
14 Level construction complete
[2] Building level 7
[1] Building level 8
[1] Building level 9
[3] Building level 7
[2] Building level 8
[1] Building level 10
[1] Building level 11
[1] Building level 12
[1] Building level 13
[1] Building level 14
[2] Building level 9
[2] Building level 10
[2] Building level 11
[3] Building level 8
[2] Building level 12
[2] Building level 13
[2] Building level 14
[3] Building level 9
[3] Building level 10
[3] Building level 11
[3] Building level 12
[3] Building level 13
[3] Building level 14
GPU: 3 iters: 1.07726 s: 1.82251 GB/s
PCGAMG:  Solving for pd, Initial residual = 0.0021096, Final residual = 8.73007e-05, No Iterations 3
[3] Building level 0
[1] Building level 0
[2] Building level 0
[0] Building level 0
[2] Building level 1
[3] Building level 1
[0] Building level 1
[1] Building level 1
[2] Building level 2
[0] Building level 2
[3] Building level 2
[1] Building level 2
[0] Building level 3
[2] Building level 3
[3] Building level 3
[1] Building level 3
[0] Building level 4
[1] Building level 4
[2] Building level 4
[3] Building level 4
[0] Building level 5
[1] Building level 5
[2] Building level 5
[0] Building level 6
[3] Building level 5
[1] Building level 6
[0] Building level 7
[0] Building level 8
[2] Building level 6
[0] Building level 9
[1] Building level 7
[0] Building level 10
[0] Building level 11
[0] Building level 12
[0] Building level 13
[0] Building level 14
14 Level construction complete
[3] Building level 6
[1] Building level 8
[1] Building level 9
[2] Building level 7
[1] Building level 10
[1] Building level 11
[1] Building level 12
[1] Building level 13
[1] Building level 14
[3] Building level 7
[2] Building level 8
[2] Building level 9
[2] Building level 10
[3] Building level 8
[2] Building level 11
[2] Building level 12
[2] Building level 13
[2] Building level 14
[3] Building level 9
[3] Building level 10
[3] Building level 11
[3] Building level 12
[3] Building level 13
[3] Building level 14
GPU: 23 iters: 6.49882 s: 2.31612 GB/s
PCGAMG:  Solving for pd, Initial residual = 0.00193504, Final residual = 8.19343e-08, No Iterations 23
time step continuity errors : sum local = 3.8484e-12, global = 4.44084e-25, cumulative = -3.69293e-25
ExecutionTime = 192.7 s  ClockTime = 206 s

Courant Number mean: 7.66784e-06 max: 0.00313192 velocity magnitude: 0.0489362
Time = 0.003

MULES: Solving for alpha1
Liquid phase volume fraction = 0.00275421  Min(alpha1) = -5.97957e-31  Max(alpha1) = 1
MULES: Solving for alpha1
Liquid phase volume fraction = 0.00275421  Min(alpha1) = -1.03974e-30  Max(alpha1) = 1
[1] Building level 0
[0] Building level 0
[3] Building level 0
[2] Building level 0
[3] Building level 1
[2] Building level 1
[1] Building level 1
[0] Building level 1
Reconstruction on level 1
[2] Building level 2
[1] Building level 2
[1] Building level 3
[2] Building level 3
Creating AMGLevel 
[0] Building level 2
Reconstruction on level 2
[3] Building level 2
[1] Building level 4
[2] Building level 4
[1] Building level 5
[2] Building level 5
[1] Building level 6
Creating AMGLevel 
[0] Building level 3
Reconstruction on level 3
[3] Building level 3
[1] Building level 7
[2] Building level 6
[1] Building level 8
[1] Building level 9
[1] Building level 10
[2] Building level 7
[1] Building level 11
[1] Building level 12
[1] Building level 13
[1] Building level 14
[2] Building level 8
[2] Building level 9
[2] Building level 10
[2] Building level 11
[2] Building level 12
[2] Building level 13
[2] Building level 14
Creating AMGLevel 
[0] Building level 4
Reconstruction on level 4
[3] Building level 4
Creating AMGLevel 
[0] Building level 5
Reconstruction on level 5
[3] Building level 5
Creating AMGLevel 
[0] Building level 6
Reconstruction on level 6
[3] Building level 6
Creating AMGLevel 
[0] Building level 7
Reconstruction on level 7
[3] Building level 7
Creating AMGLevel 
[0] Building level 8
Reconstruction on level 8
Creating AMGLevel 
[0] Building level 9
Reconstruction on level 9
[3] Building level 8
Creating AMGLevel 
[0] Building level 10
Reconstruction on level 10
Creating AMGLevel 
[0] Building level 11
Reconstruction on level 11
Creating AMGLevel 
[0] Building level 12
Reconstruction on level 12
Creating AMGLevel 
[0] Building level 13
Reconstruction on level 13
[3] Building level 9
Creating AMGLevel 
[0] Building level 14
Reconstruction on level 14
Creating AMGLevel 
14 Level construction complete
[3] Building level 10
[3] Building level 11
[3] Building level 12
[3] Building level 13
[3] Building level 14
GPU: 4 iters: 1.35156 s: 1.93683 GB/s
PCGAMG:  Solving for pd, Initial residual = 0.00425835, Final residual = 0.000160925, No Iterations 4
[2] Building level 0
[3] Building level 0
[1] Building level 0
[0] Building level 0
[3] Building level 1
[2] Building level 1
[0] Building level 1
[1] Building level 1
[0] Building level 2
[2] Building level 2
[3] Building level 2
[1] Building level 2
[2] Building level 3
[0] Building level 3
[3] Building level 3
[1] Building level 3
[0] Building level 4
[2] Building level 4
[1] Building level 4
[3] Building level 4
[0] Building level 5
[1] Building level 5
[2] Building level 5
[0] Building level 6
[3] Building level 5
[1] Building level 6
[0] Building level 7
[2] Building level 6
[0] Building level 8
[1] Building level 7
[0] Building level 9
[3] Building level 6
[0] Building level 10
[2] Building level 7
[0] Building level 11
[0] Building level 12
[1] Building level 8
[0] Building level 13
[0] Building level 14
14 Level construction complete
[1] Building level 9
[1] Building level 10
[1] Building level 11
[2] Building level 8
[1] Building level 12
[1] Building level 13
[1] Building level 14
[2] Building level 9
[3] Building level 7
[2] Building level 10
[2] Building level 11
[2] Building level 12
[2] Building level 13
[2] Building level 14
[3] Building level 8
[3] Building level 9
[3] Building level 10
[3] Building level 11
[3] Building level 12
[3] Building level 13
[3] Building level 14
GPU: 5 iters: 1.62141 s: 2.01812 GB/s
PCGAMG:  Solving for pd, Initial residual = 0.00304699, Final residual = 7.14125e-05, No Iterations 5
[1] Building level 0
[3] Building level 0
[0] Building level 0
[2] Building level 0
[3] Building level 1
[0] Building level 1
[2] Building level 1
[1] Building level 1
[0] Building level 2
[2] Building level 2
[3] Building level 2
[1] Building level 2
[0] Building level 3
[2] Building level 3
[3] Building level 3
[1] Building level 3
[0] Building level 4
[2] Building level 4
[1] Building level 4
[3] Building level 4
[0] Building level 5
[1] Building level 5
[2] Building level 5
[0] Building level 6
[3] Building level 5
[1] Building level 6
[0] Building level 7
[2] Building level 6
[0] Building level 8
[1] Building level 7
[0] Building level 9
[3] Building level 6
[0] Building level 10
[2] Building level 7
[0] Building level 11
[0] Building level 12
[1] Building level 8
[0] Building level 13
[0] Building level 14
14 Level construction complete
[1] Building level 9
[1] Building level 10
[1] Building level 11
[1] Building level 12
[2] Building level 8
[1] Building level 13
[1] Building level 14
[2] Building level 9
[3] Building level 7
[2] Building level 10
[2] Building level 11
[2] Building level 12
[2] Building level 13
[2] Building level 14
[3] Building level 8
[3] Building level 9
[3] Building level 10
[3] Building level 11
[3] Building level 12
[3] Building level 13
[3] Building level 14
GPU: 23 iters: 6.45995 s: 2.33006 GB/s
PCGAMG:  Solving for pd, Initial residual = 0.00257201, Final residual = 8.33348e-08, No Iterations 23
time step continuity errors : sum local = 3.9138e-12, global = 4.56929e-25, cumulative = 8.76359e-26
ExecutionTime = 252.42 s  ClockTime = 267 s

Courant Number mean: 1.35654e-05 max: 0.00482503 velocity magnitude: 0.0753911
Time = 0.004

MULES: Solving for alpha1
Liquid phase volume fraction = 0.00275421  Min(alpha1) = -2.44287e-30  Max(alpha1) = 1
MULES: Solving for alpha1
Liquid phase volume fraction = 0.00275421  Min(alpha1) = -3.46465e-30  Max(alpha1) = 1
[3] Building level 0
[1] Building level 0
[0] Building level 0
[2] Building level 0
[3] Building level 1
[2] Building level 1
[0] Building level 1
Reconstruction on level 1
[1] Building level 1
[2] Building level 2
[1] Building level 2
[1] Building level 3
[2] Building level 3
Creating AMGLevel 
[0] Building level 2
Reconstruction on level 2
[3] Building level 2
[1] Building level 4
[2] Building level 4
[1] Building level 5
[2] Building level 5
[1] Building level 6
Creating AMGLevel 
[0] Building level 3
Reconstruction on level 3
[3] Building level 3
[2] Building level 6
[1] Building level 7
[1] Building level 8
[1] Building level 9
[2] Building level 7
[1] Building level 10
[1] Building level 11
[1] Building level 12
[1] Building level 13
[1] Building level 14
[2] Building level 8
[2] Building level 9
[2] Building level 10
[2] Building level 11
[2] Building level 12
[2] Building level 13
[2] Building level 14
Creating AMGLevel 
[0] Building level 4
Reconstruction on level 4
[3] Building level 4
Creating AMGLevel 
[0] Building level 5
Reconstruction on level 5
[3] Building level 5
Creating AMGLevel 
[0] Building level 6
Reconstruction on level 6
[3] Building level 6
Creating AMGLevel 
[0] Building level 7
Reconstruction on level 7
[3] Building level 7
Creating AMGLevel 
[0] Building level 8
Reconstruction on level 8
[3] Building level 8
Creating AMGLevel 
[0] Building level 9
Reconstruction on level 9
Creating AMGLevel 
[0] Building level 10
Reconstruction on level 10
[3] Building level 9
Creating AMGLevel 
[0] Building level 11
Reconstruction on level 11
Creating AMGLevel 
[0] Building level 12
Reconstruction on level 12
[3] Building level 10
Creating AMGLevel 
[0] Building level 13
Reconstruction on level 13
Creating AMGLevel 
[0] Building level 14
Reconstruction on level 14
Creating AMGLevel 
14 Level construction complete
[3] Building level 11
[3] Building level 12
[3] Building level 13
[3] Building level 14
GPU: 4 iters: 1.34958 s: 1.93968 GB/s
PCGAMG:  Solving for pd, Initial residual = 0.0034319, Final residual = 0.000107087, No Iterations 4
[3] Building level 0
[1] Building level 0
[0] Building level 0
[2] Building level 0
[3] Building level 1
[2] Building level 1
[0] Building level 1
[1] Building level 1
[2] Building level 2
[3] Building level 2
[0] Building level 2
[1] Building level 2
[2] Building level 3
[3] Building level 3
[0] Building level 3
[1] Building level 3
[2] Building level 4
[1] Building level 4
[0] Building level 4
[3] Building level 4
[1] Building level 5
[2] Building level 5
[0] Building level 5
[3] Building level 5
[1] Building level 6
[2] Building level 6
[0] Building level 6
[1] Building level 7
[3] Building level 6
[2] Building level 7
[1] Building level 8
[0] Building level 7
[1] Building level 9
[2] Building level 8
[1] Building level 10
[1] Building level 11
[1] Building level 12
[1] Building level 13
[1] Building level 14
[2] Building level 9
[0] Building level 8
[3] Building level 7
[2] Building level 10
[2] Building level 11
[2] Building level 12
[2] Building level 13
[0] Building level 9
[2] Building level 14
[0] Building level 10
[0] Building level 11
[0] Building level 12
[3] Building level 8
[0] Building level 13
[0] Building level 14
14 Level construction complete
[3] Building level 9
[3] Building level 10
[3] Building level 11
[3] Building level 12
[3] Building level 13
[3] Building level 14
GPU: 5 iters: 1.62064 s: 2.01908 GB/s
PCGAMG:  Solving for pd, Initial residual = 0.00317571, Final residual = 8.35935e-05, No Iterations 5
[1] Building level 0
[2] Building level 0
[0] Building level 0
[3] Building level 0
[3] Building level 1
[2] Building level 1
[0] Building level 1
[1] Building level 1
[2] Building level 2
[3] Building level 2
[0] Building level 2
[1] Building level 2
[2] Building level 3
[3] Building level 3
[0] Building level 3
[1] Building level 3
[2] Building level 4
[1] Building level 4
[0] Building level 4
[3] Building level 4
[1] Building level 5
[2] Building level 5
[0] Building level 5
[3] Building level 5
[1] Building level 6
[2] Building level 6
[0] Building level 6
[1] Building level 7
[3] Building level 6
[2] Building level 7
[1] Building level 8
[0] Building level 7
[1] Building level 9
[2] Building level 8
[1] Building level 10
[1] Building level 11
[1] Building level 12
[1] Building level 13
[1] Building level 14
[0] Building level 8
[3] Building level 7
[2] Building level 9
[2] Building level 10
[2] Building level 11
[0] Building level 9
[2] Building level 12
[2] Building level 13
[2] Building level 14
[0] Building level 10
[0] Building level 11
[0] Building level 12
[0] Building level 13
[3] Building level 8
[0] Building level 14
14 Level construction complete
[3] Building level 9
[3] Building level 10
[3] Building level 11
[3] Building level 12
[3] Building level 13
[3] Building level 14
GPU: 21 iters: 5.92274 s: 2.32041 GB/s
PCGAMG:  Solving for pd, Initial residual = 0.00236503, Final residual = 7.79133e-08, No Iterations 21
time step continuity errors : sum local = 3.65033e-12, global = 4.08294e-24, cumulative = 4.17057e-24
ExecutionTime = 311.49 s  ClockTime = 327 s

Courant Number mean: 1.92418e-05 max: 0.00597575 velocity magnitude: 0.0933712
Time = 0.005

MULES: Solving for alpha1
Liquid phase volume fraction = 0.00275421  Min(alpha1) = -1.5571e-29  Max(alpha1) = 1
MULES: Solving for alpha1
Liquid phase volume fraction = 0.00275421  Min(alpha1) = -8.66958e-31  Max(alpha1) = 1
[1] Building level 0
[2] Building level 0
[3] Building level 0
[0] Building level 0
[2] Building level 1
[3] Building level 1
[0] Building level 1
Reconstruction on level 1
[1] Building level 1
[1] Building level 2
[1] Building level 3
Creating AMGLevel 
[2] Building level 2
[0] Building level 2
Reconstruction on level 2
[3] Building level 2
[1] Building level 4
[1] Building level 5
Creating AMGLevel 
[0] Building level 3
Reconstruction on level 3
[2] Building level 3
[1] Building level 6
[3] Building level 3
[1] Building level 7
[1] Building level 8
[1] Building level 9
[1] Building level 10
[1] Building level 11
[1] Building level 12
[1] Building level 13
[1] Building level 14
Creating AMGLevel 
[0] Building level 4
Reconstruction on level 4
[2] Building level 4
[3] Building level 4
Creating AMGLevel 
[0] Building level 5
Reconstruction on level 5
[2] Building level 5
[3] Building level 5
Creating AMGLevel 
[0] Building level 6
Reconstruction on level 6
[2] Building level 6
[3] Building level 6
Creating AMGLevel 
[0] Building level 7
Reconstruction on level 7
Creating AMGLevel 
[0] Building level 8
Reconstruction on level 8
[2] Building level 7
Creating AMGLevel 
[0] Building level 9
Reconstruction on level 9
[3] Building level 7
Creating AMGLevel 
[0] Building level 10
Reconstruction on level 10
Creating AMGLevel 
[0] Building level 11
Reconstruction on level 11
Creating AMGLevel 
[0] Building level 12
Reconstruction on level 12
[2] Building level 8
Creating AMGLevel 
[0] Building level 13
Reconstruction on level 13
Creating AMGLevel 
[0] Building level 14
Reconstruction on level 14
Creating AMGLevel 
14 Level construction complete
[3] Building level 8
[2] Building level 9
[2] Building level 10
[3] Building level 9
[2] Building level 11
[2] Building level 12
[3] Building level 10
[2] Building level 13
[2] Building level 14
[3] Building level 11
[3] Building level 12
[3] Building level 13
[3] Building level 14
GPU: 5 iters: 1.54711 s: 2.11504 GB/s
PCGAMG:  Solving for pd, Initial residual = 0.00215595, Final residual = 9.15069e-05, No Iterations 5
[1] Building level 0
[2] Building level 0
[3] Building level 0
[0] Building level 0
[3] Building level 1
[1] Building level 1
[2] Building level 1
[0] Building level 1
[2] Building level 2
[3] Building level 2
[1] Building level 2
[0] Building level 2
[2] Building level 3
[3] Building level 3
[1] Building level 3
[0] Building level 3
[2] Building level 4
[1] Building level 4
[0] Building level 4
[3] Building level 4
[2] Building level 5
[1] Building level 5
[0] Building level 5
[3] Building level 5
[2] Building level 6
[1] Building level 6
[0] Building level 6
[3] Building level 6
[2] Building level 7
[1] Building level 7
[2] Building level 8
[0] Building level 7
[3] Building level 7
[1] Building level 8
[2] Building level 9
[2] Building level 10
[2] Building level 11
[1] Building level 9
[2] Building level 12
[2] Building level 13
[2] Building level 14
[0] Building level 8
[1] Building level 10
[3] Building level 8
[1] Building level 11
[1] Building level 12
[1] Building level 13
[1] Building level 14
[0] Building level 9
[0] Building level 10
[3] Building level 9
[0] Building level 11
[0] Building level 12
[0] Building level 13
[0] Building level 14
[3] Building level 10
14 Level construction complete
[3] Building level 11
[3] Building level 12
[3] Building level 13
[3] Building level 14
GPU: 4 iters: 1.29027 s: 2.02885 GB/s
PCGAMG:  Solving for pd, Initial residual = 0.00179204, Final residual = 8.35476e-05, No Iterations 4
[1] Building level 0
[0] Building level 0
[2] Building level 0
[3] Building level 0
[3] Building level 1
[2] Building level 1
[0] Building level 1
[1] Building level 1
[2] Building level 2
[3] Building level 2
[0] Building level 2
[1] Building level 2
[2] Building level 3
[3] Building level 3
[0] Building level 3
[1] Building level 3
[2] Building level 4
[0] Building level 4
[1] Building level 4
[3] Building level 4
[2] Building level 5
[1] Building level 5
[0] Building level 5
[3] Building level 5
[2] Building level 6
[1] Building level 6
[0] Building level 6
[3] Building level 6
[2] Building level 7
[1] Building level 7
[2] Building level 8
[0] Building level 7
[3] Building level 7
[2] Building level 9
[1] Building level 8
[2] Building level 10
[2] Building level 11
[2] Building level 12
[0] Building level 8
[2] Building level 13
[2] Building level 14
[1] Building level 9
[3] Building level 8
[1] Building level 10
[0] Building level 9
[1] Building level 11
[1] Building level 12
[1] Building level 13
[1] Building level 14
[0] Building level 10
[3] Building level 9
[0] Building level 11
[0] Building level 12
[0] Building level 13
[0] Building level 14
[3] Building level 10
14 Level construction complete
[3] Building level 11
[3] Building level 12
[3] Building level 13
[3] Building level 14
GPU: 23 iters: 6.17342 s: 2.43821 GB/s
PCGAMG:  Solving for pd, Initial residual = 0.00145529, Final residual = 7.42739e-08, No Iterations 23
time step continuity errors : sum local = 3.46341e-12, global = 5.18117e-25, cumulative = 4.68869e-24
ExecutionTime = 370.61 s  ClockTime = 387 s

Courant Number mean: 2.43818e-05 max: 0.00683537 velocity magnitude: 0.106803
Time = 0.006

MULES: Solving for alpha1
Liquid phase volume fraction = 0.00275421  Min(alpha1) = -1.86602e-30  Max(alpha1) = 1
MULES: Solving for alpha1
Liquid phase volume fraction = 0.00275421  Min(alpha1) = -2.18238e-30  Max(alpha1) = 1
[0] Building level 0
[3] Building level 0
[2] Building level 0
[1] Building level 0
[3] Building level 1
[2] Building level 1
[0] Building level 1
Reconstruction on level 1
[1] Building level 1
[1] Building level 2
[3] Building level 2
[1] Building level 3
[3] Building level 3
Creating AMGLevel 
[2] Building level 2
[0] Building level 2
Reconstruction on level 2
[1] Building level 4
[3] Building level 4
[1] Building level 5
[3] Building level 5
[2] Building level 3
Creating AMGLevel 
[0] Building level 3
Reconstruction on level 3
[1] Building level 6
[3] Building level 6
[1] Building level 7
[3] Building level 7
[1] Building level 8
[1] Building level 9
[3] Building level 8
[1] Building level 10
[1] Building level 11
[3] Building level 9
[1] Building level 12
[1] Building level 13
[1] Building level 14
[3] Building level 10
[3] Building level 11
[3] Building level 12
[3] Building level 13
[3] Building level 14
Creating AMGLevel 
[0] Building level 4
Reconstruction on level 4
[2] Building level 4
Creating AMGLevel 
[0] Building level 5
Reconstruction on level 5
[2] Building level 5
Creating AMGLevel 
[0] Building level 6
Reconstruction on level 6
[2] Building level 6
Creating AMGLevel 
[0] Building level 7
Reconstruction on level 7
[2] Building level 7
Creating AMGLevel 
[0] Building level 8
Reconstruction on level 8
Creating AMGLevel 
[0] Building level 9
Reconstruction on level 9
[2] Building level 8
Creating AMGLevel 
[0] Building level 10
Reconstruction on level 10
Creating AMGLevel 
[0] Building level 11
Reconstruction on level 11
[2] Building level 9
Creating AMGLevel 
[0] Building level 12
Reconstruction on level 12
Creating AMGLevel 
[0] Building level 13
Reconstruction on level 13
Creating AMGLevel 
[0] Building level 14
Reconstruction on level 14
Creating AMGLevel 
14 Level construction complete
[2] Building level 10
[2] Building level 11
[2] Building level 12
[2] Building level 13
[2] Building level 14
GPU: 4 iters: 1.32868 s: 1.97018 GB/s
PCGAMG:  Solving for pd, Initial residual = 0.00228298, Final residual = 0.000106787, No Iterations 4
[1] Building level 0
[3] Building level 0
[2] Building level 0
[0] Building level 0
[3] Building level 1
[2] Building level 1
[0] Building level 1
[1] Building level 1
[2] Building level 2
[3] Building level 2
[1] Building level 2
[0] Building level 2
[2] Building level 3
[3] Building level 3
[1] Building level 3
[0] Building level 3
[1] Building level 4
[2] Building level 4
[3] Building level 4
[0] Building level 4
[1] Building level 5
[2] Building level 5
[3] Building level 5
[0] Building level 5
[1] Building level 6
[2] Building level 6
[0] Building level 6
[1] Building level 7
[3] Building level 6
[1] Building level 8
[2] Building level 7
[1] Building level 9
[0] Building level 7
[1] Building level 10
[1] Building level 11
[1] Building level 12
[1] Building level 13
[1] Building level 14
[3] Building level 7
[2] Building level 8
[0] Building level 8
[2] Building level 9
[0] Building level 9
[2] Building level 10
[3] Building level 8
[2] Building level 11
[0] Building level 10
[2] Building level 12
[2] Building level 13
[2] Building level 14
[0] Building level 11
[0] Building level 12
[0] Building level 13
[0] Building level 14
14 Level construction complete
[3] Building level 9
[3] Building level 10
[3] Building level 11
[3] Building level 12
[3] Building level 13
[3] Building level 14
GPU: 6 iters: 1.87837 s: 2.09045 GB/s
PCGAMG:  Solving for pd, Initial residual = 0.00118967, Final residual = 4.93549e-05, No Iterations 6
[3] Building level 0
[1] Building level 0
[0] Building level 0
[2] Building level 0
[3] Building level 1
[0] Building level 1
[2] Building level 1
[1] Building level 1
[2] Building level 2
[3] Building level 2
[1] Building level 2
[0] Building level 2
[2] Building level 3
[3] Building level 3
[1] Building level 3
[0] Building level 3
[1] Building level 4
[2] Building level 4
[3] Building level 4
[0] Building level 4
[1] Building level 5
[2] Building level 5
[3] Building level 5
[0] Building level 5
[2] Building level 6
[1] Building level 6
[3] Building level 6
[0] Building level 6
[2] Building level 7
[1] Building level 7
[2] Building level 8
[1] Building level 8
[3] Building level 7
[0] Building level 7
[1] Building level 9
[2] Building level 9
[1] Building level 10
[2] Building level 10
[1] Building level 11
[2] Building level 11
[1] Building level 12
[2] Building level 12
[1] Building level 13
[1] Building level 14
[2] Building level 13
[3] Building level 8
[2] Building level 14
[0] Building level 8
[3] Building level 9
[0] Building level 9
[3] Building level 10
[0] Building level 10
[3] Building level 11
[0] Building level 11
[3] Building level 12
[3] Building level 13
[0] Building level 12
[3] Building level 14
[0] Building level 13
[0] Building level 14
14 Level construction complete
GPU: 20 iters: 5.62268 s: 2.32785 GB/s
PCGAMG:  Solving for pd, Initial residual = 0.000713606, Final residual = 7.60815e-08, No Iterations 20
time step continuity errors : sum local = 3.5374e-12, global = 3.57711e-24, cumulative = 8.2658e-24
ExecutionTime = 429.31 s  ClockTime = 446 s

Courant Number mean: 2.94975e-05 max: 0.0076386 velocity magnitude: 0.119353
Time = 0.007

MULES: Solving for alpha1
Liquid phase volume fraction = 0.00275421  Min(alpha1) = -4.19043e-30  Max(alpha1) = 1
MULES: Solving for alpha1
Liquid phase volume fraction = 0.00275421  Min(alpha1) = -9.66016e-30  Max(alpha1) = 1
[0] Building level 0
[2] Building level 0
[1] Building level 0
[3] Building level 0
[2] Building level 1
[1] Building level 1
[0] Building level 1
Reconstruction on level 1
[3] Building level 1
[2] Building level 2
[1] Building level 2
[1] Building level 3
[1] Building level 4
[2] Building level 3
[1] Building level 5
Creating AMGLevel 
[0] Building level 2
Reconstruction on level 2
[3] Building level 2
[1] Building level 6
[2] Building level 4
[1] Building level 7
[1] Building level 8
[1] Building level 9
[1] Building level 10
[1] Building level 11
[1] Building level 12
[1] Building level 13
[1] Building level 14
[2] Building level 5
Creating AMGLevel 
[0] Building level 3
Reconstruction on level 3
[3] Building level 3
[2] Building level 6
[2] Building level 7
[2] Building level 8
[2] Building level 9
[2] Building level 10
[2] Building level 11
[2] Building level 12
[2] Building level 13
[2] Building level 14
Creating AMGLevel 
[0] Building level 4
Reconstruction on level 4
[3] Building level 4
Creating AMGLevel 
[0] Building level 5
Reconstruction on level 5
[3] Building level 5
Creating AMGLevel 
[0] Building level 6
Reconstruction on level 6
[3] Building level 6
Creating AMGLevel 
[0] Building level 7
Reconstruction on level 7
Creating AMGLevel 
[0] Building level 8
Reconstruction on level 8
[3] Building level 7
Creating AMGLevel 
[0] Building level 9
Reconstruction on level 9
Creating AMGLevel 
[0] Building level 10
Reconstruction on level 10
Creating AMGLevel 
[0] Building level 11
Reconstruction on level 11
Creating AMGLevel 
[0] Building level 12
Reconstruction on level 12
[3] Building level 8
Creating AMGLevel 
[0] Building level 13
Reconstruction on level 13
Creating AMGLevel 
[0] Building level 14
Reconstruction on level 14
Creating AMGLevel 
14 Level construction complete
[3] Building level 9
[3] Building level 10
[3] Building level 11
[3] Building level 12
[3] Building level 13
[3] Building level 14
GPU: 6 iters: 1.78005 s: 2.2059 GB/s
PCGAMG:  Solving for pd, Initial residual = 0.00232146, Final residual = 0.000101551, No Iterations 6
[2] Building level 0
[3] Building level 0
[0] Building level 0
[1] Building level 0
[3] Building level 1
[0] Building level 1
[2] Building level 1
[1] Building level 1
[2] Building level 2
[3] Building level 2
[0] Building level 2
[1] Building level 2
[2] Building level 3
[0] Building level 3
[3] Building level 3
[1] Building level 3
[2] Building level 4
[0] Building level 4
[1] Building level 4
[3] Building level 4
[0] Building level 5
[2] Building level 5
[1] Building level 5
[3] Building level 5
[0] Building level 6
[2] Building level 6
[1] Building level 6
[3] Building level 6
[0] Building level 7
[2] Building level 7
[1] Building level 7
[0] Building level 8
[2] Building level 8
[0] Building level 9
[2] Building level 9
[0] Building level 10
[1] Building level 8
[0] Building level 11
[0] Building level 12
[2] Building level 10
[0] Building level 13
[3] Building level 7
[0] Building level 14
14 Level construction complete
[2] Building level 11
[2] Building level 12
[1] Building level 9
[2] Building level 13
[2] Building level 14
[1] Building level 10
[1] Building level 11
[1] Building level 12
[1] Building level 13
[1] Building level 14
[3] Building level 8
[3] Building level 9
[3] Building level 10
[3] Building level 11
[3] Building level 12
[3] Building level 13
[3] Building level 14
GPU: 7 iters: 2.0322 s: 2.25424 GB/s
PCGAMG:  Solving for pd, Initial residual = 0.00110149, Final residual = 4.81234e-05, No Iterations 7
[1] Building level 0
[2] Building level 0
[3] Building level 0
[0] Building level 0
[0] Building level 1
[3] Building level 1
[2] Building level 1
[1] Building level 1
[2] Building level 2
[3] Building level 2
[0] Building level 2
[1] Building level 2
[2] Building level 3
[0] Building level 3
[3] Building level 3
[1] Building level 3
[2] Building level 4
[0] Building level 4
[3] Building level 4
[1] Building level 4
[2] Building level 5
[0] Building level 5
[1] Building level 5
[3] Building level 5
[2] Building level 6
[0] Building level 6
[1] Building level 6
[3] Building level 6
[2] Building level 7
[1] Building level 7
[0] Building level 7
[2] Building level 8
[3] Building level 7
[2] Building level 9
[2] Building level 10
[1] Building level 8
[2] Building level 11
[2] Building level 12
[2] Building level 13
[0] Building level 8
[2] Building level 14
[3] Building level 8
[1] Building level 9
[0] Building level 9
[1] Building level 10
[3] Building level 9
[0] Building level 10
[1] Building level 11
[1] Building level 12
[0] Building level 11
[1] Building level 13
[1] Building level 14
[0] Building level 12
[3] Building level 10
[0] Building level 13
[0] Building level 14
14 Level construction complete
[3] Building level 11
[3] Building level 12
[3] Building level 13
[3] Building level 14
GPU: 24 iters: 6.33467 s: 2.47945 GB/s
PCGAMG:  Solving for pd, Initial residual = 0.000543369, Final residual = 7.71271e-08, No Iterations 24
time step continuity errors : sum local = 3.57523e-12, global = 1.98196e-24, cumulative = 1.02478e-23
ExecutionTime = 488.59 s  ClockTime = 507 s

Courant Number mean: 3.46184e-05 max: 0.00834624 velocity magnitude: 0.13041
Time = 0.008

MULES: Solving for alpha1
Liquid phase volume fraction = 0.00275421  Min(alpha1) = -7.93476e-30  Max(alpha1) = 1
MULES: Solving for alpha1
Liquid phase volume fraction = 0.00275421  Min(alpha1) = -8.07596e-30  Max(alpha1) = 1
[2] Building level 0
[1] Building level 0
[3] Building level 0
[0] Building level 0
[2] Building level 1
[3] Building level 1
[0] Building level 1
Reconstruction on level 1
[1] Building level 1
[1] Building level 2
[1] Building level 3
Creating AMGLevel 
[0] Building level 2
Reconstruction on level 2
[2] Building level 2
[3] Building level 2
[1] Building level 4
[1] Building level 5
Creating AMGLevel 
[0] Building level 3
Reconstruction on level 3
[3] Building level 3
[2] Building level 3
[1] Building level 6
[1] Building level 7
[1] Building level 8
[1] Building level 9
[1] Building level 10
[1] Building level 11
[1] Building level 12
[1] Building level 13
[1] Building level 14
Creating AMGLevel 
[0] Building level 4
Reconstruction on level 4
[3] Building level 4
[2] Building level 4
Creating AMGLevel 
[0] Building level 5
Reconstruction on level 5
[3] Building level 5
[2] Building level 5
Creating AMGLevel 
[0] Building level 6
Reconstruction on level 6
[3] Building level 6
Creating AMGLevel 
[0] Building level 7
Reconstruction on level 7
[2] Building level 6
Creating AMGLevel 
[0] Building level 8
Reconstruction on level 8
Creating AMGLevel 
[0] Building level 9
Reconstruction on level 9
[3] Building level 7
Creating AMGLevel 
[0] Building level 10
Reconstruction on level 10
Creating AMGLevel 
[0] Building level 11
Reconstruction on level 11
[2] Building level 7
Creating AMGLevel 
[0] Building level 12
Reconstruction on level 12
Creating AMGLevel 
[0] Building level 13
Reconstruction on level 13
Creating AMGLevel 
[0] Building level 14
Reconstruction on level 14
Creating AMGLevel 
14 Level construction complete
[3] Building level 8
[2] Building level 8
[3] Building level 9
[3] Building level 10
[2] Building level 9
[3] Building level 11
[3] Building level 12
[3] Building level 13
[3] Building level 14
[2] Building level 10
[2] Building level 11
[2] Building level 12
[2] Building level 13
[2] Building level 14
GPU: 5 iters: 1.55095 s: 2.1098 GB/s
PCGAMG:  Solving for pd, Initial residual = 0.00236341, Final residual = 0.000105612, No Iterations 5
[2] Building level 0
[1] Building level 0
[0] Building level 0
[3] Building level 0
[3] Building level 1
[0] Building level 1
[1] Building level 1
[2] Building level 1
[0] Building level 2
[2] Building level 2
[3] Building level 2
[1] Building level 2
[2] Building level 3
[0] Building level 3
[3] Building level 3
[1] Building level 3
[0] Building level 4
[2] Building level 4
[3] Building level 4
[1] Building level 4
[0] Building level 5
[2] Building level 5
[0] Building level 6
[1] Building level 5
[3] Building level 5
[2] Building level 6
[0] Building level 7
[0] Building level 8
[0] Building level 9
[1] Building level 6
[0] Building level 10
[2] Building level 7
[0] Building level 11
[3] Building level 6
[0] Building level 12
[0] Building level 13
[0] Building level 14
14 Level construction complete
[2] Building level 8
[2] Building level 9
[1] Building level 7
[2] Building level 10
[2] Building level 11
[2] Building level 12
[3] Building level 7
[2] Building level 13
[2] Building level 14
[1] Building level 8
[3] Building level 8
[1] Building level 9
[1] Building level 10
[3] Building level 9
[1] Building level 11
[1] Building level 12
[1] Building level 13
[3] Building level 10
[1] Building level 14
[3] Building level 11
[3] Building level 12
[3] Building level 13
[3] Building level 14
GPU: 7 iters: 2.0548 s: 2.22944 GB/s
PCGAMG:  Solving for pd, Initial residual = 0.00106618, Final residual = 4.58774e-05, No Iterations 7
[1] Building level 0
[3] Building level 0
[2] Building level 0
[0] Building level 0
[3] Building level 1
[2] Building level 1
[0] Building level 1
[1] Building level 1
[2] Building level 2
[0] Building level 2
[3] Building level 2
[1] Building level 2
[2] Building level 3
[0] Building level 3
[3] Building level 3
[1] Building level 3
[0] Building level 4
[2] Building level 4
[3] Building level 4
[1] Building level 4
[0] Building level 5
[2] Building level 5
[3] Building level 5
[0] Building level 6
[1] Building level 5
[0] Building level 7
[2] Building level 6
[0] Building level 8
[3] Building level 6
[0] Building level 9
[0] Building level 10
[0] Building level 11
[0] Building level 12
[0] Building level 13
[0] Building level 14
14 Level construction complete
[1] Building level 6
[2] Building level 7
[3] Building level 7
[2] Building level 8
[2] Building level 9
[1] Building level 7
[2] Building level 10
[2] Building level 11
[3] Building level 8
[2] Building level 12
[2] Building level 13
[2] Building level 14
[3] Building level 9
[3] Building level 10
[1] Building level 8
[3] Building level 11
[3] Building level 12
[3] Building level 13
[3] Building level 14
[1] Building level 9
[1] Building level 10
[1] Building level 11
[1] Building level 12
[1] Building level 13
[1] Building level 14
GPU: 29 iters: 7.73446 s: 2.45378 GB/s
PCGAMG:  Solving for pd, Initial residual = 0.000454153, Final residual = 8.39107e-08, No Iterations 29
time step continuity errors : sum local = 3.87365e-12, global = -6.21195e-25, cumulative = 9.62656e-24
ExecutionTime = 550.41 s  ClockTime = 570 s

Courant Number mean: 3.97534e-05 max: 0.00903929 velocity magnitude: 0.140325
Time = 0.009

MULES: Solving for alpha1
Liquid phase volume fraction = 0.00275421  Min(alpha1) = -1.11537e-29  Max(alpha1) = 1
MULES: Solving for alpha1
Liquid phase volume fraction = 0.00275421  Min(alpha1) = -1.84937e-29  Max(alpha1) = 1
[0] Building level 0
[1] Building level 0
[2] Building level 0
[3] Building level 0
[2] Building level 1
[3] Building level 1
[0] Building level 1
Reconstruction on level 1
[1] Building level 1
Creating AMGLevel 
[2] Building level 2
[0] Building level 2
Reconstruction on level 2
[3] Building level 2
[1] Building level 2
Creating AMGLevel 
[0] Building level 3
Reconstruction on level 3
[2] Building level 3
[1] Building level 3
[3] Building level 3
Creating AMGLevel 
[0] Building level 4
Reconstruction on level 4
[2] Building level 4
[3] Building level 4
[1] Building level 4
Creating AMGLevel 
[0] Building level 5
Reconstruction on level 5
[2] Building level 5
[1] Building level 5
[3] Building level 5
Creating AMGLevel 
[0] Building level 6
Reconstruction on level 6
[2] Building level 6
[1] Building level 6
[3] Building level 6
Creating AMGLevel 
[0] Building level 7
Reconstruction on level 7
[2] Building level 7
[1] Building level 7
[3] Building level 7
Creating AMGLevel 
[0] Building level 8
Reconstruction on level 8
[2] Building level 8
[1] Building level 8
Creating AMGLevel 
[0] Building level 9
Reconstruction on level 9
[3] Building level 8
Creating AMGLevel 
[0] Building level 10
Reconstruction on level 10
[2] Building level 9
Creating AMGLevel 
[0] Building level 11
Reconstruction on level 11
[1] Building level 9
Creating AMGLevel 
[0] Building level 12
Reconstruction on level 12
Creating AMGLevel 
[0] Building level 13
Reconstruction on level 13
[3] Building level 9
Creating AMGLevel 
[0] Building level 14
Reconstruction on level 14
Creating AMGLevel 
14 Level construction complete
[1] Building level 10
[2] Building level 10
[2] Building level 11
[3] Building level 10
[1] Building level 11
[2] Building level 12
[1] Building level 12
[2] Building level 13
[1] Building level 13
[3] Building level 11
[2] Building level 14
[1] Building level 14
[3] Building level 12
[3] Building level 13
[3] Building level 14
GPU: 4 iters: 1.36445 s: 1.91854 GB/s
PCGAMG:  Solving for pd, Initial residual = 0.00242211, Final residual = 9.98756e-05, No Iterations 4
[3] Building level 0
[0] Building level 0
[2] Building level 0
[1] Building level 0
[3] Building level 1
[1] Building level 1
[0] Building level 1
[2] Building level 1
[0] Building level 2
[2] Building level 2
[3] Building level 2
[1] Building level 2
[2] Building level 3
[0] Building level 3
[1] Building level 3
[3] Building level 3
[1] Building level 4
[0] Building level 4
[2] Building level 4
[3] Building level 4
[1] Building level 5
[0] Building level 5
[2] Building level 5
[3] Building level 5
[1] Building level 6
[0] Building level 6
[2] Building level 6
[1] Building level 7
[0] Building level 7
[1] Building level 8
[2] Building level 7
[3] Building level 6
[1] Building level 9
[0] Building level 8
[1] Building level 10
[1] Building level 11
[1] Building level 12
[1] Building level 13
[0] Building level 9
[1] Building level 14
[0] Building level 10
[2] Building level 8
[0] Building level 11
[0] Building level 12
[0] Building level 13
[0] Building level 14
14 Level construction complete
[2] Building level 9
[2] Building level 10
[2] Building level 11
[2] Building level 12
[2] Building level 13
[2] Building level 14
[3] Building level 7
[3] Building level 8
[3] Building level 9
[3] Building level 10
[3] Building level 11
[3] Building level 12
[3] Building level 13
[3] Building level 14
GPU: 5 iters: 1.64256 s: 1.99212 GB/s
PCGAMG:  Solving for pd, Initial residual = 0.00101999, Final residual = 3.75059e-05, No Iterations 5
[2] Building level 0
[3] Building level 0
[1] Building level 0
[0] Building level 0
[3] Building level 1
[2] Building level 1
[0] Building level 1
[1] Building level 1
[0] Building level 2
[2] Building level 2
[3] Building level 2
[1] Building level 2
[0] Building level 3
[2] Building level 3
[3] Building level 3
[1] Building level 3
[0] Building level 4
[1] Building level 4
[3] Building level 4
[2] Building level 4
[0] Building level 5
[1] Building level 5
[3] Building level 5
[2] Building level 5
[1] Building level 6
[0] Building level 6
[1] Building level 7
[0] Building level 7
[3] Building level 6
[2] Building level 6
[1] Building level 8
[0] Building level 8
[1] Building level 9
[1] Building level 10
[1] Building level 11
[0] Building level 9
[1] Building level 12
[1] Building level 13
[1] Building level 14
[0] Building level 10
[0] Building level 11
[0] Building level 12
[0] Building level 13
[0] Building level 14
14 Level construction complete
[2] Building level 7
[3] Building level 7
[3] Building level 8
[2] Building level 8
[3] Building level 9
[2] Building level 9
[3] Building level 10
[2] Building level 10
[3] Building level 11
[2] Building level 11
[3] Building level 12
[2] Building level 12
[3] Building level 13
[3] Building level 14
[2] Building level 13
[2] Building level 14
GPU: 14 iters: 4.10613 s: 2.23133 GB/s
PCGAMG:  Solving for pd, Initial residual = 0.00036528, Final residual = 9.81974e-08, No Iterations 14
time step continuity errors : sum local = 4.52373e-12, global = 4.55073e-24, cumulative = 1.41773e-23
ExecutionTime = 607.99 s  ClockTime = 628 s

Courant Number mean: 4.49079e-05 max: 0.00972003 velocity magnitude: 0.149331
Time = 0.01

MULES: Solving for alpha1
Liquid phase volume fraction = 0.00275421  Min(alpha1) = -4.05048e-29  Max(alpha1) = 1
MULES: Solving for alpha1
Liquid phase volume fraction = 0.00275421  Min(alpha1) = -6.00094e-29  Max(alpha1) = 1
[1] Building level 0
[2] Building level 0
[0] Building level 0
[3] Building level 0
[2] Building level 1
[3] Building level 1
[0] Building level 1
Reconstruction on level 1
[1] Building level 1
[2] Building level 2
[2] Building level 3
Creating AMGLevel 
[0] Building level 2
Reconstruction on level 2
[1] Building level 2
[3] Building level 2
[2] Building level 4
[2] Building level 5
Creating AMGLevel 
[0] Building level 3
Reconstruction on level 3
[1] Building level 3
[3] Building level 3
[2] Building level 6
[2] Building level 7
[2] Building level 8
[2] Building level 9
[2] Building level 10
[2] Building level 11
[2] Building level 12
[2] Building level 13
[2] Building level 14
Creating AMGLevel 
[0] Building level 4
Reconstruction on level 4
[1] Building level 4
[3] Building level 4
Creating AMGLevel 
[1] Building level 5
[0] Building level 5
Reconstruction on level 5
[3] Building level 5
Creating AMGLevel 
[1] Building level 6
[0] Building level 6
Reconstruction on level 6
[3] Building level 6
Creating AMGLevel 
[0] Building level 7
Reconstruction on level 7
[1] Building level 7
Creating AMGLevel 
[1] Building level 8
[0] Building level 8
Reconstruction on level 8
[3] Building level 7
[1] Building level 9
Creating AMGLevel 
[0] Building level 9
Reconstruction on level 9
Creating AMGLevel 
[0] Building level 10
Reconstruction on level 10
[1] Building level 10
Creating AMGLevel 
[0] Building level 11
Reconstruction on level 11
[1] Building level 11
[3] Building level 8
Creating AMGLevel 
[0] Building level 12
Reconstruction on level 12
[1] Building level 12
Creating AMGLevel 
[0] Building level 13
Reconstruction on level 13
[1] Building level 13
Creating AMGLevel 
[0] Building level 14
Reconstruction on level 14
[1] Building level 14
Creating AMGLevel 
14 Level construction complete
[3] Building level 9
[3] Building level 10
[3] Building level 11
[3] Building level 12
[3] Building level 13
[3] Building level 14
GPU: 4 iters: 1.33534 s: 1.96036 GB/s
PCGAMG:  Solving for pd, Initial residual = 0.00258645, Final residual = 0.000103459, No Iterations 4
[0] Building level 0
[2] Building level 0
[1] Building level 0
[3] Building level 0
[3] Building level 1
[1] Building level 1
[0] Building level 1
[2] Building level 1
[0] Building level 2
[1] Building level 2
[2] Building level 2
[3] Building level 2
[1] Building level 3
[2] Building level 3
[0] Building level 3
[3] Building level 3
[0] Building level 4
[1] Building level 4
[2] Building level 4
[3] Building level 4
[0] Building level 5
[1] Building level 5
[2] Building level 5
[3] Building level 5
[0] Building level 6
[1] Building level 6
[2] Building level 6
[3] Building level 6
[0] Building level 7
[1] Building level 7
[0] Building level 8
[2] Building level 7
[1] Building level 8
[0] Building level 9
[3] Building level 7
[0] Building level 10
[1] Building level 9
[0] Building level 11
[0] Building level 12
[0] Building level 13
[0] Building level 14
[1] Building level 10
14 Level construction complete
[2] Building level 8
[1] Building level 11
[1] Building level 12
[1] Building level 13
[1] Building level 14
[3] Building level 8
[2] Building level 9
[2] Building level 10
[2] Building level 11
[3] Building level 9
[2] Building level 12
[2] Building level 13
[2] Building level 14
[3] Building level 10
[3] Building level 11
[3] Building level 12
[3] Building level 13
[3] Building level 14
GPU: 5 iters: 1.59616 s: 2.05004 GB/s
PCGAMG:  Solving for pd, Initial residual = 0.00100417, Final residual = 3.93372e-05, No Iterations 5
[2] Building level 0
[1] Building level 0
[3] Building level 0
[0] Building level 0
[2] Building level 1
[0] Building level 1
[3] Building level 1
[1] Building level 1
[0] Building level 2
[1] Building level 2
[2] Building level 2
[3] Building level 2
[1] Building level 3
[0] Building level 3
[2] Building level 3
[3] Building level 3
[0] Building level 4
[1] Building level 4
[3] Building level 4
[2] Building level 4
[0] Building level 5
[1] Building level 5
[3] Building level 5
[2] Building level 5
[1] Building level 6
[0] Building level 6
[1] Building level 7
[3] Building level 6
[0] Building level 7
[2] Building level 6
[1] Building level 8
[0] Building level 8
[1] Building level 9
[1] Building level 10
[0] Building level 9
[1] Building level 11
[1] Building level 12
[1] Building level 13
[0] Building level 10
[1] Building level 14
[3] Building level 7
[0] Building level 11
[0] Building level 12
[0] Building level 13
[0] Building level 14
14 Level construction complete
[2] Building level 7
[3] Building level 8
[3] Building level 9
[2] Building level 8
[3] Building level 10
[3] Building level 11
[3] Building level 12
[3] Building level 13
[3] Building level 14
[2] Building level 9
[2] Building level 10
[2] Building level 11
[2] Building level 12
[2] Building level 13
[2] Building level 14
GPU: 14 iters: 3.99131 s: 2.29552 GB/s
PCGAMG:  Solving for pd, Initial residual = 0.00031948, Final residual = 7.13132e-08, No Iterations 14
time step continuity errors : sum local = 3.27271e-12, global = 3.7341e-24, cumulative = 1.79114e-23
ExecutionTime = 665.45 s  ClockTime = 687 s

End

Finalising parallel run
