 Data for JOB [1018,1] offset 0

 ========================   JOB MAP   ========================

 Data for node: ivb106	Num slots: 4	Max slots: 0	Num procs: 4
 	Process OMPI jobid: [1018,1] App: 0 Process rank: 0
 	Process OMPI jobid: [1018,1] App: 0 Process rank: 1
 	Process OMPI jobid: [1018,1] App: 0 Process rank: 2
 	Process OMPI jobid: [1018,1] App: 0 Process rank: 3

 =============================================================
[ivb106:34920] MCW rank 2 bound to socket 0[core 2[hwt 0]]: [././B/././././././.][./././././././././.]
[ivb106:34920] MCW rank 3 bound to socket 0[core 3[hwt 0]]: [./././B/./././././.][./././././././././.]
[ivb106:34920] MCW rank 0 bound to socket 0[core 0[hwt 0]]: [B/././././././././.][./././././././././.]
[ivb106:34920] MCW rank 1 bound to socket 0[core 1[hwt 0]]: [./B/./././././././.][./././././././././.]
/*---------------------------------------------------------------------------*\
| =========                 |                                                 |
| \\      /  F ield         | foam-extend: Open Source CFD                    |
|  \\    /   O peration     | Version:     3.1                                |
|   \\  /    A nd           | Web:         http://www.extend-project.de       |
|    \\/     M anipulation  |                                                 |
\*---------------------------------------------------------------------------*/
Build    : 3.1-e2da948002a2
Exec     : interFoam -parallel
Date     : May 21 2016
Time     : 12:28:31
Host     : ivb106
PID      : 34957
CtrlDict : /home-2/vplatonov/foam/foam-extend-3.1/etc/controlDict
Case     : /home/vplatonov/tests/rt12mln
nProcs   : 4
Slaves : 
3
(
ivb106.34961
ivb106.34955
ivb106.34954
)

Pstream initialized with:
    floatTransfer     : 0
    nProcsSimpleSum   : 0
    commsType         : blocking
SigFpe   : Enabling floating point exception trapping (FOAM_SIGFPE).

// * * * * * * * * * * * * * * * * * * * * * * * * * * * * * * * * * * * * * //
Create time

Create mesh for time = 0


Reading g
Reading field pd

Reading field alpha1

Reading field U

Reading/calculating face flux field phi

Reading transportProperties

Selecting incompressible transport model Newtonian
Selecting incompressible transport model Newtonian
Calculating field g.h

Selecting turbulence model type laminar
time step continuity errors : sum local = 0, global = 0, cumulative = 0
[1] Building level 0
[2] Building level 0
Created persistent data with name pcorr
[0] Building level 0
[3] Building level 0
Creating AMGLevel 
[1] Building level 1
[2] Building level 1
[0] Building level 1
[3] Building level 1
[1] Building level 2
Creating AMGLevel 
[2] Building level 2
[0] Building level 2
[3] Building level 2
[2] Building level 3
[1] Building level 3
Creating AMGLevel 
[0] Building level 3
[3] Building level 3
[2] Building level 4
[1] Building level 4
Creating AMGLevel 
[0] Building level 4
[3] Building level 4
[2] Building level 5
[1] Building level 5
Creating AMGLevel 
[0] Building level 5
[2] Building level 6
[1] Building level 6
[3] Building level 5
[2] Building level 7
[1] Building level 7
[2] Building level 8
Creating AMGLevel 
[0] Building level 6
[2] Building level 9
[1] Building level 8
[2] Building level 10
[2] Building level 11
[1] Building level 9
[2] Building level 12
[2] Building level 13
[2] Building level 14
[1] Building level 10
[1] Building level 11
Creating AMGLevel 
[0] Building level 7
[1] Building level 12
[1] Building level 13
[1] Building level 14
[3] Building level 6
Creating AMGLevel 
[0] Building level 8
Creating AMGLevel 
[0] Building level 9
Creating AMGLevel 
[0] Building level 10
Creating AMGLevel 
[0] Building level 11
Creating AMGLevel 
[0] Building level 12
Creating AMGLevel 
[0] Building level 13
[3] Building level 7
Creating AMGLevel 
[0] Building level 14
Creating AMGLevel 
14 Level construction complete
[3] Building level 8
[3] Building level 9
[3] Building level 10
[3] Building level 11
[3] Building level 12
[3] Building level 13
[3] Building level 14
PCGAMG:  Solving for pcorr, Initial residual = 0, Final residual = 0, No Iterations 0
time step continuity errors : sum local = 0, global = 0, cumulative = 0
Courant Number mean: 0 max: 0 velocity magnitude: 0

Starting time loop

Courant Number mean: 0 max: 0 velocity magnitude: 0
Time = 0.001

MULES: Solving for alpha1
Liquid phase volume fraction = 0.00275421  Min(alpha1) = 0  Max(alpha1) = 1
MULES: Solving for alpha1
Liquid phase volume fraction = 0.00275421  Min(alpha1) = 0  Max(alpha1) = 1
[1] Building level 0
[2] Building level 0
Created persistent data with name pd
[0] Building level 0
[3] Building level 0
Creating AMGLevel 
[1] Building level 1
[2] Building level 1
[0] Building level 1
[3] Building level 1
[1] Building level 2
[2] Building level 2
Creating AMGLevel 
[0] Building level 2
[3] Building level 2
[1] Building level 3
[2] Building level 3
Creating AMGLevel 
[0] Building level 3
[3] Building level 3
[1] Building level 4
[2] Building level 4
Creating AMGLevel 
[0] Building level 4
[3] Building level 4
[1] Building level 5
[2] Building level 5
Creating AMGLevel 
[0] Building level 5
[1] Building level 6
[2] Building level 6
[3] Building level 5
Creating AMGLevel 
[0] Building level 6
[1] Building level 7
[2] Building level 7
[1] Building level 8
[2] Building level 8
Creating AMGLevel 
[0] Building level 7
[1] Building level 9
[2] Building level 9
[1] Building level 10
[2] Building level 10
[1] Building level 11
[2] Building level 11
[1] Building level 12
[1] Building level 13
[2] Building level 12
[1] Building level 14
[2] Building level 13
Creating AMGLevel 
[0] Building level 8
[2] Building level 14
[3] Building level 6
Creating AMGLevel 
[0] Building level 9
Creating AMGLevel 
[0] Building level 10
Creating AMGLevel 
[0] Building level 11
Creating AMGLevel 
[0] Building level 12
Creating AMGLevel 
[0] Building level 13
Creating AMGLevel 
[0] Building level 14
Creating AMGLevel 
14 Level construction complete
[3] Building level 7
[3] Building level 8
[3] Building level 9
[3] Building level 10
[3] Building level 11
[3] Building level 12
[3] Building level 13
[3] Building level 14
GPU: 1 iters: 0.581407 s: 1.12561 GB/s
PCGAMG:  Solving for pd, Initial residual = 1, Final residual = 0.034781, No Iterations 1
[2] Building level 0
[1] Building level 0
[3] Building level 0
[0] Building level 0
[3] Building level 1
[1] Building level 1
[0] Building level 1
[2] Building level 1
[1] Building level 2
[2] Building level 2
[3] Building level 2
[0] Building level 2
[1] Building level 3
[2] Building level 3
[3] Building level 3
[0] Building level 3
[1] Building level 4
[2] Building level 4
[3] Building level 4
[0] Building level 4
[1] Building level 5
[2] Building level 5
[3] Building level 5
[0] Building level 5
[1] Building level 6
[2] Building level 6
[3] Building level 6
[0] Building level 6
[1] Building level 7
[2] Building level 7
[1] Building level 8
[1] Building level 9
[0] Building level 7
[3] Building level 7
[2] Building level 8
[1] Building level 10
[1] Building level 11
[1] Building level 12
[1] Building level 13
[1] Building level 14
[2] Building level 9
[2] Building level 10
[0] Building level 8
[3] Building level 8
[2] Building level 11
[2] Building level 12
[2] Building level 13
[2] Building level 14
[0] Building level 9
[3] Building level 9
[0] Building level 10
[3] Building level 10
[0] Building level 11
[0] Building level 12
[0] Building level 13
[3] Building level 11
[0] Building level 14
14 Level construction complete
[3] Building level 12
[3] Building level 13
[3] Building level 14
GPU: 3 iters: 1.16295 s: 1.68822 GB/s
PCGAMG:  Solving for pd, Initial residual = 0.0222778, Final residual = 0.000979628, No Iterations 3
[0] Building level 0
[3] Building level 0
[2] Building level 0
[1] Building level 0
[0] Building level 1
[3] Building level 1
[1] Building level 1
[2] Building level 1
[1] Building level 2
[2] Building level 2
[3] Building level 2
[0] Building level 2
[1] Building level 3
[2] Building level 3
[3] Building level 3
[0] Building level 3
[1] Building level 4
[2] Building level 4
[3] Building level 4
[0] Building level 4
[1] Building level 5
[2] Building level 5
[3] Building level 5
[0] Building level 5
[1] Building level 6
[2] Building level 6
[3] Building level 6
[1] Building level 7
[0] Building level 6
[2] Building level 7
[1] Building level 8
[3] Building level 7
[2] Building level 8
[1] Building level 9
[1] Building level 10
[1] Building level 11
[1] Building level 12
[2] Building level 9
[1] Building level 13
[1] Building level 14
[0] Building level 7
[2] Building level 10
[2] Building level 11
[3] Building level 8
[2] Building level 12
[2] Building level 13
[2] Building level 14
[3] Building level 9
[0] Building level 8
[3] Building level 10
[3] Building level 11
[3] Building level 12
[3] Building level 13
[3] Building level 14
[0] Building level 9
[0] Building level 10
[0] Building level 11
[0] Building level 12
[0] Building level 13
[0] Building level 14
14 Level construction complete
GPU: 17 iters: 5.18062 s: 2.14751 GB/s
PCGAMG:  Solving for pd, Initial residual = 0.0056286, Final residual = 8.82366e-08, No Iterations 17
time step continuity errors : sum local = 6.57175e-12, global = 6.63261e-25, cumulative = 6.63261e-25
ExecutionTime = 133.51 s  ClockTime = 145 s

Courant Number mean: 4.86856e-06 max: 0.00215808 velocity magnitude: 0.03372
Time = 0.002

MULES: Solving for alpha1
Liquid phase volume fraction = 0.00275421  Min(alpha1) = 0  Max(alpha1) = 1
MULES: Solving for alpha1
Liquid phase volume fraction = 0.00275421  Min(alpha1) = -8.85536e-30  Max(alpha1) = 1
[0] Building level 0
[3] Building level 0
[1] Building level 0
[2] Building level 0
[3] Building level 1
[0] Building level 1
Reconstruction on level 1
[2] Building level 1
[1] Building level 1
[2] Building level 2
Creating AMGLevel 
[1] Building level 2
[0] Building level 2
Reconstruction on level 2
[3] Building level 2
[2] Building level 3
[1] Building level 3
Creating AMGLevel 
[0] Building level 3
Reconstruction on level 3
[3] Building level 3
[1] Building level 4
[2] Building level 4
Creating AMGLevel 
[0] Building level 4
Reconstruction on level 4
[3] Building level 4
[1] Building level 5
[2] Building level 5
Creating AMGLevel 
[0] Building level 5
Reconstruction on level 5
[1] Building level 6
[3] Building level 5
[1] Building level 7
[2] Building level 6
Creating AMGLevel 
[0] Building level 6
Reconstruction on level 6
[1] Building level 8
[1] Building level 9
[1] Building level 10
[2] Building level 7
[1] Building level 11
Creating AMGLevel 
[0] Building level 7
Reconstruction on level 7
[1] Building level 12
[1] Building level 13
[1] Building level 14
[2] Building level 8
Creating AMGLevel 
[0] Building level 8
Reconstruction on level 8
[3] Building level 6
[2] Building level 9
Creating AMGLevel 
[0] Building level 9
Reconstruction on level 9
[2] Building level 10
[2] Building level 11
Creating AMGLevel 
[0] Building level 10
Reconstruction on level 10
[2] Building level 12
[2] Building level 13
[2] Building level 14
Creating AMGLevel 
[0] Building level 11
Reconstruction on level 11
Creating AMGLevel 
[0] Building level 12
Reconstruction on level 12
Creating AMGLevel 
[0] Building level 13
Reconstruction on level 13
Creating AMGLevel 
[0] Building level 14
Reconstruction on level 14
Creating AMGLevel 
14 Level construction complete
[3] Building level 7
[3] Building level 8
[3] Building level 9
[3] Building level 10
[3] Building level 11
[3] Building level 12
[3] Building level 13
[3] Building level 14
GPU: 3 iters: 1.1809 s: 1.66256 GB/s
PCGAMG:  Solving for pd, Initial residual = 0.00352138, Final residual = 0.000128942, No Iterations 3
[3] Building level 0
[1] Building level 0
[2] Building level 0
[0] Building level 0
[0] Building level 1
[2] Building level 1
[3] Building level 1
[1] Building level 1
[2] Building level 2
[3] Building level 2
[1] Building level 2
[0] Building level 2
[2] Building level 3
[3] Building level 3
[1] Building level 3
[0] Building level 3
[1] Building level 4
[0] Building level 4
[3] Building level 4
[2] Building level 4
[1] Building level 5
[0] Building level 5
[3] Building level 5
[2] Building level 5
[1] Building level 6
[0] Building level 6
[1] Building level 7
[3] Building level 6
[2] Building level 6
[1] Building level 8
[1] Building level 9
[0] Building level 7
[1] Building level 10
[1] Building level 11
[1] Building level 12
[1] Building level 13
[1] Building level 14
[3] Building level 7
[0] Building level 8
[2] Building level 7
[0] Building level 9
[3] Building level 8
[0] Building level 10
[0] Building level 11
[0] Building level 12
[0] Building level 13
[0] Building level 14
14 Level construction complete
[3] Building level 9
[2] Building level 8
[3] Building level 10
[3] Building level 11
[3] Building level 12
[2] Building level 9
[3] Building level 13
[3] Building level 14
[2] Building level 10
[2] Building level 11
[2] Building level 12
[2] Building level 13
[2] Building level 14
GPU: 3 iters: 1.18128 s: 1.66202 GB/s
PCGAMG:  Solving for pd, Initial residual = 0.00210354, Final residual = 8.44123e-05, No Iterations 3
[1] Building level 0
[2] Building level 0
[3] Building level 0
[0] Building level 0
[0] Building level 1
[3] Building level 1
[1] Building level 1
[2] Building level 1
[0] Building level 2
[3] Building level 2
[1] Building level 2
[2] Building level 2
[2] Building level 3
[1] Building level 3
[0] Building level 3
[3] Building level 3
[1] Building level 4
[0] Building level 4
[3] Building level 4
[2] Building level 4
[1] Building level 5
[0] Building level 5
[3] Building level 5
[2] Building level 5
[1] Building level 6
[0] Building level 6
[1] Building level 7
[3] Building level 6
[2] Building level 6
[1] Building level 8
[0] Building level 7
[1] Building level 9
[1] Building level 10
[1] Building level 11
[1] Building level 12
[1] Building level 13
[1] Building level 14
[3] Building level 7
[0] Building level 8
[0] Building level 9
[2] Building level 7
[0] Building level 10
[0] Building level 11
[0] Building level 12
[3] Building level 8
[0] Building level 13
[0] Building level 14
14 Level construction complete
[3] Building level 9
[2] Building level 8
[3] Building level 10
[3] Building level 11
[3] Building level 12
[3] Building level 13
[3] Building level 14
[2] Building level 9
[2] Building level 10
[2] Building level 11
[2] Building level 12
[2] Building level 13
[2] Building level 14
GPU: 32 iters: 9.72477 s: 2.15347 GB/s
PCGAMG:  Solving for pd, Initial residual = 0.00193313, Final residual = 8.51099e-08, No Iterations 32
time step continuity errors : sum local = 4.01052e-12, global = -4.31168e-26, cumulative = 6.20144e-25
ExecutionTime = 197.39 s  ClockTime = 210 s

Courant Number mean: 7.668e-06 max: 0.00313191 velocity magnitude: 0.0489361
Time = 0.003

MULES: Solving for alpha1
Liquid phase volume fraction = 0.00275421  Min(alpha1) = -4.53201e-31  Max(alpha1) = 1
MULES: Solving for alpha1
Liquid phase volume fraction = 0.00275421  Min(alpha1) = -5.538e-30  Max(alpha1) = 1
[0] Building level 0
[2] Building level 0
[1] Building level 0
[3] Building level 0
[0] Building level 1
[1] Building level 1
[2] Building level 1
[3] Building level 1
[0] Building level 2
Reconstruction on level 2
[2] Building level 2
[1] Building level 2
[1] Building level 3
Creating AMGLevel 
[2] Building level 3
[0] Building level 3
Reconstruction on level 3
[1] Building level 4
[3] Building level 2
[2] Building level 4
Creating AMGLevel 
[0] Building level 4
Reconstruction on level 4
[1] Building level 5
[2] Building level 5
Creating AMGLevel 
[0] Building level 5
Reconstruction on level 5
[1] Building level 6
[2] Building level 6
Creating AMGLevel 
[0] Building level 6
Reconstruction on level 6
[3] Building level 3
[1] Building level 7
[2] Building level 7
[1] Building level 8
Creating AMGLevel 
[0] Building level 7
Reconstruction on level 7
[1] Building level 9
[1] Building level 10
[2] Building level 8
[1] Building level 11
[1] Building level 12
[1] Building level 13
[1] Building level 14
[2] Building level 9
Creating AMGLevel 
[2] Building level 10
[0] Building level 8
Reconstruction on level 8
[2] Building level 11
[2] Building level 12
[2] Building level 13
[2] Building level 14
Creating AMGLevel 
[0] Building level 9
Reconstruction on level 9
Creating AMGLevel 
[0] Building level 10
Reconstruction on level 10
Creating AMGLevel 
[0] Building level 11
Reconstruction on level 11
Creating AMGLevel 
[0] Building level 12
Reconstruction on level 12
Creating AMGLevel 
[0] Building level 13
Reconstruction on level 13
Creating AMGLevel 
[0] Building level 14
Reconstruction on level 14
Creating AMGLevel 
14 Level construction complete
[3] Building level 4
[3] Building level 5
[3] Building level 6
[3] Building level 7
[3] Building level 8
[3] Building level 9
[3] Building level 10
[3] Building level 11
[3] Building level 12
[3] Building level 13
[3] Building level 14
GPU: 4 iters: 1.50054 s: 1.74454 GB/s
PCGAMG:  Solving for pd, Initial residual = 0.00425644, Final residual = 0.000176619, No Iterations 4
[0] Building level 0
[1] Building level 0
[2] Building level 0
[3] Building level 0
[2] Building level 1
[0] Building level 1
[1] Building level 1
[3] Building level 1
[0] Building level 2
[3] Building level 2
[1] Building level 2
[2] Building level 2
[3] Building level 3
[0] Building level 3
[1] Building level 3
[2] Building level 3
[0] Building level 4
[1] Building level 4
[2] Building level 4
[3] Building level 4
[1] Building level 5
[0] Building level 5
[2] Building level 5
[3] Building level 5
[1] Building level 6
[0] Building level 6
[2] Building level 6
[1] Building level 7
[3] Building level 6
[0] Building level 7
[1] Building level 8
[2] Building level 7
[0] Building level 8
[1] Building level 9
[1] Building level 10
[1] Building level 11
[0] Building level 9
[1] Building level 12
[1] Building level 13
[1] Building level 14
[3] Building level 7
[0] Building level 10
[2] Building level 8
[0] Building level 11
[0] Building level 12
[0] Building level 13
[0] Building level 14
14 Level construction complete
[2] Building level 9
[2] Building level 10
[2] Building level 11
[2] Building level 12
[3] Building level 8
[2] Building level 13
[2] Building level 14
[3] Building level 9
[3] Building level 10
[3] Building level 11
[3] Building level 12
[3] Building level 13
[3] Building level 14
GPU: 5 iters: 1.79275 s: 1.82523 GB/s
PCGAMG:  Solving for pd, Initial residual = 0.00306354, Final residual = 8.3587e-05, No Iterations 5
[1] Building level 0
[2] Building level 0
[3] Building level 0
[0] Building level 0
[3] Building level 1
[1] Building level 1
[0] Building level 1
[2] Building level 1
[0] Building level 2
[3] Building level 2
[2] Building level 2
[1] Building level 2
[3] Building level 3
[0] Building level 3
[1] Building level 3
[2] Building level 3
[1] Building level 4
[0] Building level 4
[2] Building level 4
[3] Building level 4
[1] Building level 5
[0] Building level 5
[2] Building level 5
[3] Building level 5
[1] Building level 6
[0] Building level 6
[2] Building level 6
[3] Building level 6
[1] Building level 7
[0] Building level 7
[1] Building level 8
[2] Building level 7
[0] Building level 8
[1] Building level 9
[1] Building level 10
[1] Building level 11
[0] Building level 9
[1] Building level 12
[1] Building level 13
[1] Building level 14
[3] Building level 7
[2] Building level 8
[0] Building level 10
[0] Building level 11
[0] Building level 12
[0] Building level 13
[0] Building level 14
14 Level construction complete
[2] Building level 9
[2] Building level 10
[2] Building level 11
[3] Building level 8
[2] Building level 12
[2] Building level 13
[2] Building level 14
[3] Building level 9
[3] Building level 10
[3] Building level 11
[3] Building level 12
[3] Building level 13
[3] Building level 14
GPU: 18 iters: 5.66527 s: 2.07931 GB/s
PCGAMG:  Solving for pd, Initial residual = 0.00258491, Final residual = 8.35907e-08, No Iterations 18
time step continuity errors : sum local = 3.92932e-12, global = 1.41591e-24, cumulative = 2.03605e-24
ExecutionTime = 256.9 s  ClockTime = 270 s

Courant Number mean: 1.35656e-05 max: 0.00482503 velocity magnitude: 0.075391
Time = 0.004

MULES: Solving for alpha1
Liquid phase volume fraction = 0.00275421  Min(alpha1) = -1.96426e-31  Max(alpha1) = 1
MULES: Solving for alpha1
Liquid phase volume fraction = 0.00275421  Min(alpha1) = -2.07076e-31  Max(alpha1) = 1
[0] Building level 0
[3] Building level 0
[1] Building level 0
[2] Building level 0
[0] Building level 1
Reconstruction on level 1
[2] Building level 1
[1] Building level 1
[3] Building level 1
[1] Building level 2
[1] Building level 3
Creating AMGLevel 
[0] Building level 2
Reconstruction on level 2
[2] Building level 2
[1] Building level 4
[3] Building level 2
[1] Building level 5
[2] Building level 3
[1] Building level 6
Creating AMGLevel 
[0] Building level 3
Reconstruction on level 3
[3] Building level 3
[1] Building level 7
[1] Building level 8
[1] Building level 9
[1] Building level 10
[1] Building level 11
[1] Building level 12
[1] Building level 13
[1] Building level 14
[2] Building level 4
Creating AMGLevel 
[0] Building level 4
Reconstruction on level 4
[3] Building level 4
[2] Building level 5
Creating AMGLevel 
[0] Building level 5
Reconstruction on level 5
[3] Building level 5
[2] Building level 6
Creating AMGLevel 
[0] Building level 6
Reconstruction on level 6
[2] Building level 7
Creating AMGLevel 
[2] Building level 8
[0] Building level 7
Reconstruction on level 7
[2] Building level 9
[3] Building level 6
[2] Building level 10
Creating AMGLevel 
[0] Building level 8
Reconstruction on level 8
[2] Building level 11
[2] Building level 12
[2] Building level 13
[2] Building level 14
Creating AMGLevel 
[0] Building level 9
Reconstruction on level 9
Creating AMGLevel 
[0] Building level 10
Reconstruction on level 10
Creating AMGLevel 
[0] Building level 11
Reconstruction on level 11
Creating AMGLevel 
[0] Building level 12
Reconstruction on level 12
Creating AMGLevel 
[0] Building level 13
Reconstruction on level 13
Creating AMGLevel 
[0] Building level 14
Reconstruction on level 14
Creating AMGLevel 
14 Level construction complete
[3] Building level 7
[3] Building level 8
[3] Building level 9
[3] Building level 10
[3] Building level 11
[3] Building level 12
[3] Building level 13
[3] Building level 14
GPU: 4 iters: 1.45278 s: 1.80189 GB/s
PCGAMG:  Solving for pd, Initial residual = 0.00343317, Final residual = 0.00010157, No Iterations 4
[1] Building level 0
[2] Building level 0
[3] Building level 0
[0] Building level 0
[3] Building level 1
[0] Building level 1
[2] Building level 1
[1] Building level 1
[2] Building level 2
[3] Building level 2
[0] Building level 2
[1] Building level 2
[2] Building level 3
[0] Building level 3
[1] Building level 3
[3] Building level 3
[1] Building level 4
[2] Building level 4
[0] Building level 4
[3] Building level 4
[1] Building level 5
[2] Building level 5
[0] Building level 5
[3] Building level 5
[1] Building level 6
[2] Building level 6
[0] Building level 6
[1] Building level 7
[0] Building level 7
[1] Building level 8
[2] Building level 7
[3] Building level 6
[1] Building level 9
[1] Building level 10
[1] Building level 11
[1] Building level 12
[1] Building level 13
[1] Building level 14
[0] Building level 8
[2] Building level 8
[0] Building level 9
[2] Building level 9
[0] Building level 10
[2] Building level 10
[0] Building level 11
[0] Building level 12
[2] Building level 11
[0] Building level 13
[0] Building level 14
14 Level construction complete
[2] Building level 12
[2] Building level 13
[2] Building level 14
[3] Building level 7
[3] Building level 8
[3] Building level 9
[3] Building level 10
[3] Building level 11
[3] Building level 12
[3] Building level 13
[3] Building level 14
GPU: 4 iters: 1.45196 s: 1.80291 GB/s
PCGAMG:  Solving for pd, Initial residual = 0.00317068, Final residual = 0.000157526, No Iterations 4
[0] Building level 0
[3] Building level 0
[2] Building level 0
[1] Building level 0
[0] Building level 1
[2] Building level 1
[3] Building level 1
[1] Building level 1
[2] Building level 2
[0] Building level 2
[3] Building level 2
[1] Building level 2
[2] Building level 3
[0] Building level 3
[1] Building level 3
[3] Building level 3
[1] Building level 4
[2] Building level 4
[0] Building level 4
[3] Building level 4
[1] Building level 5
[2] Building level 5
[0] Building level 5
[3] Building level 5
[1] Building level 6
[0] Building level 6
[2] Building level 6
[1] Building level 7
[1] Building level 8
[0] Building level 7
[2] Building level 7
[3] Building level 6
[1] Building level 9
[1] Building level 10
[1] Building level 11
[1] Building level 12
[0] Building level 8
[1] Building level 13
[1] Building level 14
[0] Building level 9
[2] Building level 8
[0] Building level 10
[0] Building level 11
[0] Building level 12
[0] Building level 13
[2] Building level 9
[0] Building level 14
14 Level construction complete
[2] Building level 10
[2] Building level 11
[3] Building level 7
[2] Building level 12
[2] Building level 13
[2] Building level 14
[3] Building level 8
[3] Building level 9
[3] Building level 10
[3] Building level 11
[3] Building level 12
[3] Building level 13
[3] Building level 14
GPU: 15 iters: 4.62185 s: 2.12395 GB/s
PCGAMG:  Solving for pd, Initial residual = 0.00245704, Final residual = 9.90404e-08, No Iterations 15
time step continuity errors : sum local = 4.62424e-12, global = -1.44862e-24, cumulative = 5.87436e-25
ExecutionTime = 315.42 s  ClockTime = 330 s

Courant Number mean: 1.92421e-05 max: 0.00597574 velocity magnitude: 0.093371
Time = 0.005

MULES: Solving for alpha1
Liquid phase volume fraction = 0.00275421  Min(alpha1) = -6.6935e-31  Max(alpha1) = 1
MULES: Solving for alpha1
Liquid phase volume fraction = 0.00275421  Min(alpha1) = -6.27396e-30  Max(alpha1) = 1
[1] Building level 0
[2] Building level 0
[3] Building level 0
[0] Building level 0
[0] Building level 1
Reconstruction on level 1
[2] Building level 1
[3] Building level 1
[1] Building level 1
[1] Building level 2
[1] Building level 3
Creating AMGLevel 
[0] Building level 2
Reconstruction on level 2
[2] Building level 2
[1] Building level 4
[3] Building level 2
[1] Building level 5
Creating AMGLevel 
[2] Building level 3
[0] Building level 3
Reconstruction on level 3
[1] Building level 6
[3] Building level 3
[1] Building level 7
[1] Building level 8
[1] Building level 9
[1] Building level 10
[1] Building level 11
[1] Building level 12
[1] Building level 13
[1] Building level 14
[2] Building level 4
Creating AMGLevel 
[0] Building level 4
Reconstruction on level 4
[3] Building level 4
[2] Building level 5
Creating AMGLevel 
[0] Building level 5
Reconstruction on level 5
[3] Building level 5
[2] Building level 6
Creating AMGLevel 
[0] Building level 6
Reconstruction on level 6
[2] Building level 7
Creating AMGLevel 
[0] Building level 7
Reconstruction on level 7
[3] Building level 6
[2] Building level 8
[2] Building level 9
Creating AMGLevel 
[0] Building level 8
Reconstruction on level 8
[2] Building level 10
[2] Building level 11
[2] Building level 12
Creating AMGLevel 
[2] Building level 13
[0] Building level 9
Reconstruction on level 9
[2] Building level 14
Creating AMGLevel 
[0] Building level 10
Reconstruction on level 10
Creating AMGLevel 
[0] Building level 11
Reconstruction on level 11
Creating AMGLevel 
[0] Building level 12
Reconstruction on level 12
[3] Building level 7
Creating AMGLevel 
[0] Building level 13
Reconstruction on level 13
Creating AMGLevel 
[0] Building level 14
Reconstruction on level 14
Creating AMGLevel 
14 Level construction complete
[3] Building level 8
[3] Building level 9
[3] Building level 10
[3] Building level 11
[3] Building level 12
[3] Building level 13
[3] Building level 14
GPU: 5 iters: 1.74191 s: 1.87851 GB/s
PCGAMG:  Solving for pd, Initial residual = 0.00217065, Final residual = 9.55368e-05, No Iterations 5
[3] Building level 0
[2] Building level 0
[1] Building level 0
[0] Building level 0
[2] Building level 1
[0] Building level 1
[3] Building level 1
[1] Building level 1
[0] Building level 2
[2] Building level 2
[3] Building level 2
[1] Building level 2
[0] Building level 3
[2] Building level 3
[1] Building level 3
[3] Building level 3
[0] Building level 4
[1] Building level 4
[3] Building level 4
[2] Building level 4
[1] Building level 5
[0] Building level 5
[3] Building level 5
[2] Building level 5
[1] Building level 6
[0] Building level 6
[1] Building level 7
[0] Building level 7
[3] Building level 6
[2] Building level 6
[1] Building level 8
[0] Building level 8
[1] Building level 9
[0] Building level 9
[1] Building level 10
[1] Building level 11
[0] Building level 10
[1] Building level 12
[1] Building level 13
[1] Building level 14
[0] Building level 11
[0] Building level 12
[0] Building level 13
[0] Building level 14
14 Level construction complete
[3] Building level 7
[2] Building level 7
[3] Building level 8
[2] Building level 8
[3] Building level 9
[2] Building level 9
[3] Building level 10
[3] Building level 11
[2] Building level 10
[3] Building level 12
[3] Building level 13
[3] Building level 14
[2] Building level 11
[2] Building level 12
[2] Building level 13
[2] Building level 14
GPU: 5 iters: 1.75217 s: 1.86751 GB/s
PCGAMG:  Solving for pd, Initial residual = 0.00179713, Final residual = 7.79611e-05, No Iterations 5
[1] Building level 0
[2] Building level 0
[3] Building level 0
[0] Building level 0
[3] Building level 1
[1] Building level 1
[2] Building level 1
[0] Building level 1
[3] Building level 2
[1] Building level 2
[0] Building level 2
[2] Building level 2
[0] Building level 3
[1] Building level 3
[2] Building level 3
[3] Building level 3
[1] Building level 4
[0] Building level 4
[3] Building level 4
[2] Building level 4
[1] Building level 5
[0] Building level 5
[3] Building level 5
[2] Building level 5
[1] Building level 6
[0] Building level 6
[1] Building level 7
[3] Building level 6
[0] Building level 7
[2] Building level 6
[1] Building level 8
[0] Building level 8
[1] Building level 9
[1] Building level 10
[1] Building level 11
[0] Building level 9
[1] Building level 12
[1] Building level 13
[1] Building level 14
[0] Building level 10
[0] Building level 11
[0] Building level 12
[3] Building level 7
[0] Building level 13
[0] Building level 14
14 Level construction complete
[2] Building level 7
[3] Building level 8
[2] Building level 8
[3] Building level 9
[3] Building level 10
[3] Building level 11
[2] Building level 9
[3] Building level 12
[3] Building level 13
[3] Building level 14
[2] Building level 10
[2] Building level 11
[2] Building level 12
[2] Building level 13
[2] Building level 14
GPU: 30 iters: 9.02772 s: 2.17476 GB/s
PCGAMG:  Solving for pd, Initial residual = 0.00145858, Final residual = 9.02146e-08, No Iterations 30
time step continuity errors : sum local = 4.20435e-12, global = 4.28953e-24, cumulative = 4.87697e-24
ExecutionTime = 379.21 s  ClockTime = 394 s

Courant Number mean: 2.43821e-05 max: 0.00683534 velocity magnitude: 0.106802
Time = 0.006

MULES: Solving for alpha1
Liquid phase volume fraction = 0.00275421  Min(alpha1) = -1.26494e-30  Max(alpha1) = 1
MULES: Solving for alpha1
Liquid phase volume fraction = 0.00275421  Min(alpha1) = -1.42468e-30  Max(alpha1) = 1
[0] Building level 0
[1] Building level 0
[2] Building level 0
[3] Building level 0
[3] Building level 1
[0] Building level 1
Reconstruction on level 1
[2] Building level 1
[1] Building level 1
[2] Building level 2
[1] Building level 2
[1] Building level 3
[2] Building level 3
Creating AMGLevel 
[0] Building level 2
Reconstruction on level 2
[1] Building level 4
[3] Building level 2
[2] Building level 4
[1] Building level 5
[2] Building level 5
Creating AMGLevel 
[1] Building level 6
[0] Building level 3
Reconstruction on level 3
[2] Building level 6
[3] Building level 3
[1] Building level 7
[2] Building level 7
[1] Building level 8
[1] Building level 9
[2] Building level 8
[1] Building level 10
[1] Building level 11
[1] Building level 12
[2] Building level 9
[1] Building level 13
[1] Building level 14
[2] Building level 10
[2] Building level 11
[2] Building level 12
[2] Building level 13
[2] Building level 14
Creating AMGLevel 
[0] Building level 4
Reconstruction on level 4
[3] Building level 4
Creating AMGLevel 
[0] Building level 5
Reconstruction on level 5
[3] Building level 5
Creating AMGLevel 
[0] Building level 6
Reconstruction on level 6
Creating AMGLevel 
[0] Building level 7
Reconstruction on level 7
Creating AMGLevel 
[0] Building level 8
Reconstruction on level 8
[3] Building level 6
Creating AMGLevel 
[0] Building level 9
Reconstruction on level 9
Creating AMGLevel 
[0] Building level 10
Reconstruction on level 10
Creating AMGLevel 
[0] Building level 11
Reconstruction on level 11
Creating AMGLevel 
[0] Building level 12
Reconstruction on level 12
Creating AMGLevel 
[0] Building level 13
Reconstruction on level 13
Creating AMGLevel 
[0] Building level 14
Reconstruction on level 14
Creating AMGLevel 
14 Level construction complete
[3] Building level 7
[3] Building level 8
[3] Building level 9
[3] Building level 10
[3] Building level 11
[3] Building level 12
[3] Building level 13
[3] Building level 14
GPU: 5 iters: 1.68714 s: 1.93949 GB/s
PCGAMG:  Solving for pd, Initial residual = 0.00227872, Final residual = 0.000102288, No Iterations 5
[0] Building level 0
[3] Building level 0
[2] Building level 0
[1] Building level 0
[0] Building level 1
[3] Building level 1
[2] Building level 1
[1] Building level 1
[3] Building level 2
[0] Building level 2
[1] Building level 2
[3] Building level 3
[2] Building level 2
[1] Building level 3
[0] Building level 3
[3] Building level 4
[1] Building level 4
[0] Building level 4
[2] Building level 3
[1] Building level 5
[3] Building level 5
[0] Building level 5
[1] Building level 6
[3] Building level 6
[0] Building level 6
[1] Building level 7
[3] Building level 7
[1] Building level 8
[3] Building level 8
[2] Building level 4
[1] Building level 9
[0] Building level 7
[1] Building level 10
[1] Building level 11
[3] Building level 9
[1] Building level 12
[1] Building level 13
[1] Building level 14
[3] Building level 10
[3] Building level 11
[3] Building level 12
[3] Building level 13
[3] Building level 14
[0] Building level 8
[0] Building level 9
[0] Building level 10
[0] Building level 11
[0] Building level 12
[0] Building level 13
[0] Building level 14
14 Level construction complete
[2] Building level 5
[2] Building level 6
[2] Building level 7
[2] Building level 8
[2] Building level 9
[2] Building level 10
[2] Building level 11
[2] Building level 12
[2] Building level 13
[2] Building level 14
GPU: 6 iters: 1.9867 s: 1.97646 GB/s
PCGAMG:  Solving for pd, Initial residual = 0.00118611, Final residual = 4.3239e-05, No Iterations 6
[3] Building level 0
[2] Building level 0
[0] Building level 0
[1] Building level 0
[0] Building level 1
[3] Building level 1
[2] Building level 1
[1] Building level 1
[3] Building level 2
[0] Building level 2
[2] Building level 2
[1] Building level 2
[3] Building level 3
[2] Building level 3
[1] Building level 3
[0] Building level 3
[3] Building level 4
[1] Building level 4
[2] Building level 4
[0] Building level 4
[1] Building level 5
[3] Building level 5
[0] Building level 5
[2] Building level 5
[1] Building level 6
[3] Building level 6
[0] Building level 6
[1] Building level 7
[2] Building level 6
[3] Building level 7
[1] Building level 8
[3] Building level 8
[1] Building level 9
[1] Building level 10
[0] Building level 7
[3] Building level 9
[1] Building level 11
[1] Building level 12
[1] Building level 13
[1] Building level 14
[2] Building level 7
[3] Building level 10
[3] Building level 11
[3] Building level 12
[3] Building level 13
[3] Building level 14
[0] Building level 8
[2] Building level 8
[0] Building level 9
[0] Building level 10
[2] Building level 9
[0] Building level 11
[0] Building level 12
[0] Building level 13
[0] Building level 14
14 Level construction complete
[2] Building level 10
[2] Building level 11
[2] Building level 12
[2] Building level 13
[2] Building level 14
GPU: 26 iters: 7.66225 s: 2.22068 GB/s
PCGAMG:  Solving for pd, Initial residual = 0.000704508, Final residual = 9.93252e-08, No Iterations 26
time step continuity errors : sum local = 4.61435e-12, global = 9.07155e-24, cumulative = 1.39485e-23
ExecutionTime = 442.17 s  ClockTime = 458 s

Courant Number mean: 2.94978e-05 max: 0.00763858 velocity magnitude: 0.119353
Time = 0.007

MULES: Solving for alpha1
Liquid phase volume fraction = 0.00275421  Min(alpha1) = -3.2722e-30  Max(alpha1) = 1
MULES: Solving for alpha1
Liquid phase volume fraction = 0.00275421  Min(alpha1) = -4.65625e-30  Max(alpha1) = 1
[2] Building level 0
[0] Building level 0
[3] Building level 0
[1] Building level 0
[1] Building level 1
[2] Building level 1
[0] Building level 1
Reconstruction on level 1
[3] Building level 1
[1] Building level 2
[1] Building level 3
[2] Building level 2
[1] Building level 4
Creating AMGLevel 
[0] Building level 2
Reconstruction on level 2
[3] Building level 2
[1] Building level 5
[2] Building level 3
[1] Building level 6
Creating AMGLevel 
[0] Building level 3
Reconstruction on level 3
[3] Building level 3
[1] Building level 7
[1] Building level 8
[1] Building level 9
[1] Building level 10
[1] Building level 11
[1] Building level 12
[1] Building level 13
[1] Building level 14
[2] Building level 4
Creating AMGLevel 
[0] Building level 4
Reconstruction on level 4
[3] Building level 4
[2] Building level 5
Creating AMGLevel 
[0] Building level 5
Reconstruction on level 5
[2] Building level 6
[3] Building level 5
Creating AMGLevel 
[0] Building level 6
Reconstruction on level 6
[2] Building level 7
[2] Building level 8
[2] Building level 9
Creating AMGLevel 
[0] Building level 7
Reconstruction on level 7
[2] Building level 10
[2] Building level 11
[2] Building level 12
[2] Building level 13
[2] Building level 14
[3] Building level 6
Creating AMGLevel 
[0] Building level 8
Reconstruction on level 8
Creating AMGLevel 
[0] Building level 9
Reconstruction on level 9
Creating AMGLevel 
[0] Building level 10
Reconstruction on level 10
Creating AMGLevel 
[0] Building level 11
Reconstruction on level 11
Creating AMGLevel 
[0] Building level 12
Reconstruction on level 12
Creating AMGLevel 
[0] Building level 13
Reconstruction on level 13
Creating AMGLevel 
[0] Building level 14
Reconstruction on level 14
Creating AMGLevel 
14 Level construction complete
[3] Building level 7
[3] Building level 8
[3] Building level 9
[3] Building level 10
[3] Building level 11
[3] Building level 12
[3] Building level 13
[3] Building level 14
GPU: 5 iters: 1.73157 s: 1.88973 GB/s
PCGAMG:  Solving for pd, Initial residual = 0.00232028, Final residual = 0.000100096, No Iterations 5
[1] Building level 0
[3] Building level 0
[2] Building level 0
[0] Building level 0
[3] Building level 1
[2] Building level 1
[0] Building level 1
[1] Building level 1
[2] Building level 2
[0] Building level 2
[3] Building level 2
[1] Building level 2
[2] Building level 3
[0] Building level 3
[3] Building level 3
[1] Building level 3
[2] Building level 4
[0] Building level 4
[1] Building level 4
[3] Building level 4
[0] Building level 5
[2] Building level 5
[1] Building level 5
[3] Building level 5
[0] Building level 6
[2] Building level 6
[1] Building level 6
[0] Building level 7
[3] Building level 6
[2] Building level 7
[1] Building level 7
[0] Building level 8
[0] Building level 9
[1] Building level 8
[2] Building level 8
[0] Building level 10
[0] Building level 11
[0] Building level 12
[0] Building level 13
[0] Building level 14
14 Level construction complete
[1] Building level 9
[3] Building level 7
[2] Building level 9
[1] Building level 10
[2] Building level 10
[1] Building level 11
[2] Building level 11
[1] Building level 12
[1] Building level 13
[1] Building level 14
[2] Building level 12
[2] Building level 13
[2] Building level 14
[3] Building level 8
[3] Building level 9
[3] Building level 10
[3] Building level 11
[3] Building level 12
[3] Building level 13
[3] Building level 14
GPU: 7 iters: 2.30342 s: 1.98881 GB/s
PCGAMG:  Solving for pd, Initial residual = 0.00108796, Final residual = 3.5034e-05, No Iterations 7
[2] Building level 0
[0] Building level 0
[1] Building level 0
[3] Building level 0
[3] Building level 1
[2] Building level 1
[0] Building level 1
[1] Building level 1
[2] Building level 2
[3] Building level 2
[0] Building level 2
[1] Building level 2
[2] Building level 3
[3] Building level 3
[0] Building level 3
[1] Building level 3
[2] Building level 4
[0] Building level 4
[1] Building level 4
[3] Building level 4
[2] Building level 5
[0] Building level 5
[1] Building level 5
[3] Building level 5
[2] Building level 6
[0] Building level 6
[1] Building level 6
[3] Building level 6
[2] Building level 7
[0] Building level 7
[1] Building level 7
[2] Building level 8
[0] Building level 8
[3] Building level 7
[1] Building level 8
[2] Building level 9
[0] Building level 9
[2] Building level 10
[2] Building level 11
[0] Building level 10
[1] Building level 9
[2] Building level 12
[2] Building level 13
[0] Building level 11
[2] Building level 14
[0] Building level 12
[0] Building level 13
[0] Building level 14
14 Level construction complete
[1] Building level 10
[3] Building level 8
[1] Building level 11
[1] Building level 12
[1] Building level 13
[1] Building level 14
[3] Building level 9
[3] Building level 10
[3] Building level 11
[3] Building level 12
[3] Building level 13
[3] Building level 14
GPU: 26 iters: 7.79001 s: 2.18426 GB/s
PCGAMG:  Solving for pd, Initial residual = 0.000522994, Final residual = 8.68026e-08, No Iterations 26
time step continuity errors : sum local = 4.03154e-12, global = -6.46707e-24, cumulative = 7.48145e-24
ExecutionTime = 505.52 s  ClockTime = 522 s

Courant Number mean: 3.46187e-05 max: 0.00834622 velocity magnitude: 0.13041
Time = 0.008

MULES: Solving for alpha1
Liquid phase volume fraction = 0.00275421  Min(alpha1) = -6.37518e-30  Max(alpha1) = 1
MULES: Solving for alpha1
Liquid phase volume fraction = 0.00275421  Min(alpha1) = -8.42149e-30  Max(alpha1) = 1
[3] Building level 0
[2] Building level 0
[1] Building level 0
[0] Building level 0
[1] Building level 1
[0] Building level 1
Reconstruction on level 1
[2] Building level 1
[3] Building level 1
[2] Building level 2
[1] Building level 2
[1] Building level 3
[2] Building level 3
Creating AMGLevel 
[0] Building level 2
Reconstruction on level 2
[3] Building level 2
[1] Building level 4
[2] Building level 4
[1] Building level 5
[2] Building level 5
Creating AMGLevel 
[0] Building level 3
Reconstruction on level 3
[1] Building level 6
[3] Building level 3
[2] Building level 6
[1] Building level 7
[2] Building level 7
[1] Building level 8
[1] Building level 9
[2] Building level 8
[1] Building level 10
[1] Building level 11
[2] Building level 9
[1] Building level 12
[1] Building level 13
[1] Building level 14
[2] Building level 10
[2] Building level 11
[2] Building level 12
[2] Building level 13
[2] Building level 14
Creating AMGLevel 
[0] Building level 4
Reconstruction on level 4
[3] Building level 4
Creating AMGLevel 
[0] Building level 5
Reconstruction on level 5
[3] Building level 5
Creating AMGLevel 
[0] Building level 6
Reconstruction on level 6
[3] Building level 6
Creating AMGLevel 
[0] Building level 7
Reconstruction on level 7
Creating AMGLevel 
[0] Building level 8
Reconstruction on level 8
Creating AMGLevel 
[0] Building level 9
Reconstruction on level 9
Creating AMGLevel 
[0] Building level 10
Reconstruction on level 10
[3] Building level 7
Creating AMGLevel 
[0] Building level 11
Reconstruction on level 11
Creating AMGLevel 
[0] Building level 12
Reconstruction on level 12
Creating AMGLevel 
[0] Building level 13
Reconstruction on level 13
Creating AMGLevel 
[0] Building level 14
Reconstruction on level 14
Creating AMGLevel 
14 Level construction complete
[3] Building level 8
[3] Building level 9
[3] Building level 10
[3] Building level 11
[3] Building level 12
[3] Building level 13
[3] Building level 14
GPU: 5 iters: 1.71796 s: 1.90469 GB/s
PCGAMG:  Solving for pd, Initial residual = 0.00236038, Final residual = 9.4863e-05, No Iterations 5
[1] Building level 0
[3] Building level 0
[2] Building level 0
[0] Building level 0
[3] Building level 1
[0] Building level 1
[2] Building level 1
[1] Building level 1
[0] Building level 2
[3] Building level 2
[2] Building level 2
[1] Building level 2
[0] Building level 3
[2] Building level 3
[3] Building level 3
[1] Building level 3
[2] Building level 4
[0] Building level 4
[3] Building level 4
[1] Building level 4
[0] Building level 5
[2] Building level 5
[3] Building level 5
[1] Building level 5
[0] Building level 6
[2] Building level 6
[3] Building level 6
[0] Building level 7
[1] Building level 6
[2] Building level 7
[0] Building level 8
[3] Building level 7
[0] Building level 9
[2] Building level 8
[0] Building level 10
[0] Building level 11
[0] Building level 12
[0] Building level 13
[0] Building level 14
14 Level construction complete
[2] Building level 9
[1] Building level 7
[2] Building level 10
[2] Building level 11
[3] Building level 8
[2] Building level 12
[2] Building level 13
[2] Building level 14
[3] Building level 9
[1] Building level 8
[3] Building level 10
[3] Building level 11
[3] Building level 12
[3] Building level 13
[1] Building level 9
[3] Building level 14
[1] Building level 10
[1] Building level 11
[1] Building level 12
[1] Building level 13
[1] Building level 14
GPU: 7 iters: 2.27228 s: 2.01606 GB/s
PCGAMG:  Solving for pd, Initial residual = 0.00106238, Final residual = 3.37395e-05, No Iterations 7
[2] Building level 0
[3] Building level 0
[0] Building level 0
[1] Building level 0
[1] Building level 1
[2] Building level 1
[3] Building level 1
[0] Building level 1
[2] Building level 2
[3] Building level 2
[0] Building level 2
[1] Building level 2
[2] Building level 3
[0] Building level 3
[3] Building level 3
[1] Building level 3
[2] Building level 4
[0] Building level 4
[3] Building level 4
[1] Building level 4
[2] Building level 5
[0] Building level 5
[3] Building level 5
[1] Building level 5
[2] Building level 6
[0] Building level 6
[3] Building level 6
[1] Building level 6
[2] Building level 7
[0] Building level 7
[2] Building level 8
[3] Building level 7
[0] Building level 8
[2] Building level 9
[1] Building level 7
[0] Building level 9
[2] Building level 10
[0] Building level 10
[2] Building level 11
[2] Building level 12
[2] Building level 13
[0] Building level 11
[2] Building level 14
[0] Building level 12
[0] Building level 13
[3] Building level 8
[0] Building level 14
14 Level construction complete
[1] Building level 8
[3] Building level 9
[3] Building level 10
[3] Building level 11
[1] Building level 9
[3] Building level 12
[3] Building level 13
[3] Building level 14
[1] Building level 10
[1] Building level 11
[1] Building level 12
[1] Building level 13
[1] Building level 14
GPU: 19 iters: 5.75401 s: 2.16098 GB/s
PCGAMG:  Solving for pd, Initial residual = 0.000436745, Final residual = 9.8356e-08, No Iterations 19
time step continuity errors : sum local = 4.54479e-12, global = -1.75641e-24, cumulative = 5.72503e-24
ExecutionTime = 566.71 s  ClockTime = 584 s

Courant Number mean: 3.97537e-05 max: 0.0090393 velocity magnitude: 0.140325
Time = 0.009

MULES: Solving for alpha1
Liquid phase volume fraction = 0.00275421  Min(alpha1) = -1.24774e-29  Max(alpha1) = 1
MULES: Solving for alpha1
Liquid phase volume fraction = 0.00275421  Min(alpha1) = -2.0876e-29  Max(alpha1) = 1
[0] Building level 0
[1] Building level 0
[3] Building level 0
[2] Building level 0
[0] Building level 1
Reconstruction on level 1
[1] Building level 1
[3] Building level 1
[2] Building level 1
[2] Building level 2
[2] Building level 3
[1] Building level 2
Creating AMGLevel 
[0] Building level 2
Reconstruction on level 2
[3] Building level 2
[2] Building level 4
[2] Building level 5
[1] Building level 3
[2] Building level 6
Creating AMGLevel 
[0] Building level 3
Reconstruction on level 3
[3] Building level 3
[2] Building level 7
[2] Building level 8
[2] Building level 9
[2] Building level 10
[2] Building level 11
[2] Building level 12
[2] Building level 13
[2] Building level 14
[1] Building level 4
Creating AMGLevel 
[0] Building level 4
Reconstruction on level 4
[3] Building level 4
[1] Building level 5
Creating AMGLevel 
[0] Building level 5
Reconstruction on level 5
[1] Building level 6
[3] Building level 5
[1] Building level 7
Creating AMGLevel 
[0] Building level 6
Reconstruction on level 6
[1] Building level 8
[1] Building level 9
[1] Building level 10
[1] Building level 11
[1] Building level 12
Creating AMGLevel 
[0] Building level 7
Reconstruction on level 7
[1] Building level 13
[1] Building level 14
[3] Building level 6
Creating AMGLevel 
[0] Building level 8
Reconstruction on level 8
Creating AMGLevel 
[0] Building level 9
Reconstruction on level 9
Creating AMGLevel 
[0] Building level 10
Reconstruction on level 10
Creating AMGLevel 
[0] Building level 11
Reconstruction on level 11
Creating AMGLevel 
[0] Building level 12
Reconstruction on level 12
Creating AMGLevel 
[0] Building level 13
Reconstruction on level 13
Creating AMGLevel 
[0] Building level 14
Reconstruction on level 14
Creating AMGLevel 
14 Level construction complete
[3] Building level 7
[3] Building level 8
[3] Building level 9
[3] Building level 10
[3] Building level 11
[3] Building level 12
[3] Building level 13
[3] Building level 14
GPU: 4 iters: 1.3838 s: 1.89171 GB/s
PCGAMG:  Solving for pd, Initial residual = 0.0024199, Final residual = 0.000106161, No Iterations 4
[1] Building level 0
[0] Building level 0
[3] Building level 0
[2] Building level 0
[2] Building level 1
[3] Building level 1
[1] Building level 1
[0] Building level 1
[2] Building level 2
[3] Building level 2
[1] Building level 2
[0] Building level 2
[2] Building level 3
[0] Building level 3
[1] Building level 3
[3] Building level 3
[2] Building level 4
[3] Building level 4
[1] Building level 4
[0] Building level 4
[2] Building level 5
[1] Building level 5
[3] Building level 5
[0] Building level 5
[2] Building level 6
[1] Building level 6
[0] Building level 6
[3] Building level 6
[1] Building level 7
[2] Building level 7
[3] Building level 7
[0] Building level 7
[1] Building level 8
[2] Building level 8
[3] Building level 8
[0] Building level 8
[1] Building level 9
[2] Building level 9
[0] Building level 9
[3] Building level 9
[1] Building level 10
[1] Building level 11
[2] Building level 10
[0] Building level 10
[1] Building level 12
[1] Building level 13
[3] Building level 10
[1] Building level 14
[2] Building level 11
[2] Building level 12
[0] Building level 11
[3] Building level 11
[2] Building level 13
[2] Building level 14
[0] Building level 12
[3] Building level 12
[0] Building level 13
[0] Building level 14
14 Level construction complete
[3] Building level 13
[3] Building level 14
GPU: 5 iters: 1.65033 s: 1.98274 GB/s
PCGAMG:  Solving for pd, Initial residual = 0.00102519, Final residual = 4.24907e-05, No Iterations 5
[1] Building level 0
[3] Building level 0
[2] Building level 0
[0] Building level 0
[1] Building level 1
[2] Building level 1
[0] Building level 1
[3] Building level 1
[2] Building level 2
[1] Building level 2
[0] Building level 2
[3] Building level 2
[2] Building level 3
[1] Building level 3
[0] Building level 3
[3] Building level 3
[2] Building level 4
[1] Building level 4
[0] Building level 4
[3] Building level 4
[2] Building level 5
[1] Building level 5
[0] Building level 5
[3] Building level 5
[2] Building level 6
[1] Building level 6
[0] Building level 6
[3] Building level 6
[2] Building level 7
[1] Building level 7
[0] Building level 7
[2] Building level 8
[1] Building level 8
[3] Building level 7
[2] Building level 9
[1] Building level 9
[2] Building level 10
[1] Building level 10
[0] Building level 8
[2] Building level 11
[1] Building level 11
[2] Building level 12
[2] Building level 13
[1] Building level 12
[2] Building level 14
[1] Building level 13
[3] Building level 8
[1] Building level 14
[0] Building level 9
[0] Building level 10
[3] Building level 9
[0] Building level 11
[0] Building level 12
[0] Building level 13
[0] Building level 14
14 Level construction complete
[3] Building level 10
[3] Building level 11
[3] Building level 12
[3] Building level 13
[3] Building level 14
GPU: 16 iters: 4.66771 s: 2.24329 GB/s
PCGAMG:  Solving for pd, Initial residual = 0.00037327, Final residual = 6.77761e-08, No Iterations 16
time step continuity errors : sum local = 3.12026e-12, global = -2.08321e-24, cumulative = 3.64182e-24
ExecutionTime = 626.04 s  ClockTime = 644 s

Courant Number mean: 4.49082e-05 max: 0.00972004 velocity magnitude: 0.149331
Time = 0.01

MULES: Solving for alpha1
Liquid phase volume fraction = 0.00275421  Min(alpha1) = -2.62936e-29  Max(alpha1) = 1
MULES: Solving for alpha1
Liquid phase volume fraction = 0.00275421  Min(alpha1) = -5.65286e-29  Max(alpha1) = 1
[0] Building level 0
[3] Building level 0
[2] Building level 0
[1] Building level 0
[0] Building level 1
Reconstruction on level 1
[3] Building level 1
[1] Building level 1
[2] Building level 1
[2] Building level 2
[1] Building level 2
[1] Building level 3
[2] Building level 3
Creating AMGLevel 
[0] Building level 2
[0] Building level 3
Reconstruction on level 3
[1] Building level 4
[3] Building level 2
[2] Building level 4
[1] Building level 5
[2] Building level 5
Creating AMGLevel 
[0] Building level 4
Reconstruction on level 4
[1] Building level 6
[2] Building level 6
[3] Building level 3
[1] Building level 7
[2] Building level 7
[1] Building level 8
[2] Building level 8
[1] Building level 9
[1] Building level 10
[1] Building level 11
[2] Building level 9
[1] Building level 12
[1] Building level 13
[1] Building level 14
[2] Building level 10
Creating AMGLevel 
[2] Building level 11
[0] Building level 5
Reconstruction on level 5
[2] Building level 12
[2] Building level 13
[2] Building level 14
Creating AMGLevel 
[0] Building level 6
Reconstruction on level 6
[3] Building level 4
Creating AMGLevel 
[0] Building level 7
Reconstruction on level 7
Creating AMGLevel 
[0] Building level 8
Reconstruction on level 8
Creating AMGLevel 
[0] Building level 9
Reconstruction on level 9
Creating AMGLevel 
[0] Building level 10
Reconstruction on level 10
Creating AMGLevel 
[0] Building level 11
Reconstruction on level 11
Creating AMGLevel 
[0] Building level 12
Reconstruction on level 12
Creating AMGLevel 
[0] Building level 13
Reconstruction on level 13
Creating AMGLevel 
[0] Building level 14
Reconstruction on level 14
Creating AMGLevel 
14 Level construction complete
[3] Building level 5
[3] Building level 6
[3] Building level 7
[3] Building level 8
[3] Building level 9
[3] Building level 10
[3] Building level 11
[3] Building level 12
[3] Building level 13
[3] Building level 14
GPU: 4 iters: 1.45742 s: 1.79615 GB/s
PCGAMG:  Solving for pd, Initial residual = 0.00258806, Final residual = 0.000104545, No Iterations 4
[2] Building level 0
[1] Building level 0
[3] Building level 0
[0] Building level 0
[2] Building level 1
[3] Building level 1
[1] Building level 1
[0] Building level 1
[2] Building level 2
[3] Building level 2
[1] Building level 2
[0] Building level 2
[2] Building level 3
[1] Building level 3
[0] Building level 3
[3] Building level 3
[1] Building level 4
[2] Building level 4
[3] Building level 4
[0] Building level 4
[1] Building level 5
[2] Building level 5
[0] Building level 5
[3] Building level 5
[1] Building level 6
[2] Building level 6
[0] Building level 6
[3] Building level 6
[1] Building level 7
[2] Building level 7
[1] Building level 8
[0] Building level 7
[1] Building level 9
[3] Building level 7
[1] Building level 10
[2] Building level 8
[1] Building level 11
[1] Building level 12
[1] Building level 13
[1] Building level 14
[2] Building level 9
[3] Building level 8
[0] Building level 8
[2] Building level 10
[2] Building level 11
[2] Building level 12
[2] Building level 13
[2] Building level 14
[0] Building level 9
[3] Building level 9
[0] Building level 10
[3] Building level 10
[0] Building level 11
[3] Building level 11
[0] Building level 12
[3] Building level 12
[0] Building level 13
[0] Building level 14
14 Level construction complete
[3] Building level 13
[3] Building level 14
GPU: 5 iters: 1.74572 s: 1.87441 GB/s
PCGAMG:  Solving for pd, Initial residual = 0.00100617, Final residual = 4.35855e-05, No Iterations 5
[2] Building level 0
[1] Building level 0
[3] Building level 0
[0] Building level 0
[0] Building level 1
[1] Building level 1
[3] Building level 1
[2] Building level 1
[2] Building level 2
[0] Building level 2
[3] Building level 2
[1] Building level 2
[2] Building level 3
[0] Building level 3
[1] Building level 3
[3] Building level 3
[2] Building level 4
[1] Building level 4
[0] Building level 4
[3] Building level 4
[1] Building level 5
[2] Building level 5
[0] Building level 5
[3] Building level 5
[1] Building level 6
[2] Building level 6
[0] Building level 6
[3] Building level 6
[1] Building level 7
[2] Building level 7
[1] Building level 8
[0] Building level 7
[1] Building level 9
[2] Building level 8
[3] Building level 7
[1] Building level 10
[1] Building level 11
[1] Building level 12
[1] Building level 13
[1] Building level 14
[2] Building level 9
[0] Building level 8
[2] Building level 10
[2] Building level 11
[2] Building level 12
[3] Building level 8
[2] Building level 13
[2] Building level 14
[0] Building level 9
[0] Building level 10
[0] Building level 11
[3] Building level 9
[0] Building level 12
[0] Building level 13
[0] Building level 14
14 Level construction complete
[3] Building level 10
[3] Building level 11
[3] Building level 12
[3] Building level 13
[3] Building level 14
GPU: 24 iters: 7.26457 s: 2.16207 GB/s
PCGAMG:  Solving for pd, Initial residual = 0.00032737, Final residual = 9.97011e-08, No Iterations 24
time step continuity errors : sum local = 4.56581e-12, global = 7.0009e-24, cumulative = 1.06427e-23
ExecutionTime = 687.82 s  ClockTime = 707 s

End

Finalising parallel run
