 Data for JOB [1950,1] offset 0

 ========================   JOB MAP   ========================

 Data for node: ivb106	Num slots: 6	Max slots: 0	Num procs: 6
 	Process OMPI jobid: [1950,1] App: 0 Process rank: 0
 	Process OMPI jobid: [1950,1] App: 0 Process rank: 1
 	Process OMPI jobid: [1950,1] App: 0 Process rank: 2
 	Process OMPI jobid: [1950,1] App: 0 Process rank: 3
 	Process OMPI jobid: [1950,1] App: 0 Process rank: 4
 	Process OMPI jobid: [1950,1] App: 0 Process rank: 5

 =============================================================
[ivb106:35852] MCW rank 3 bound to socket 0[core 3[hwt 0]]: [./././B/./././././.][./././././././././.]
[ivb106:35852] MCW rank 4 bound to socket 0[core 4[hwt 0]]: [././././B/././././.][./././././././././.]
[ivb106:35852] MCW rank 5 bound to socket 0[core 5[hwt 0]]: [./././././B/./././.][./././././././././.]
[ivb106:35852] MCW rank 0 bound to socket 0[core 0[hwt 0]]: [B/././././././././.][./././././././././.]
[ivb106:35852] MCW rank 1 bound to socket 0[core 1[hwt 0]]: [./B/./././././././.][./././././././././.]
[ivb106:35852] MCW rank 2 bound to socket 0[core 2[hwt 0]]: [././B/././././././.][./././././././././.]
1
0
2
3
4
5
/*---------------------------------------------------------------------------*\
| =========                 |                                                 |
| \\      /  F ield         | foam-extend: Open Source CFD                    |
|  \\    /   O peration     | Version:     3.1                                |
|   \\  /    A nd           | Web:         http://www.extend-project.de       |
|    \\/     M anipulation  |                                                 |
\*---------------------------------------------------------------------------*/
Build    : 3.1-e2da948002a2
Exec     : interFoam -parallel
Date     : May 21 2016
Time     : 12:56:06
Host     : ivb106
PID      : 35913
CtrlDict : /home-2/vplatonov/foam/foam-extend-3.1/etc/controlDict
Case     : /home/vplatonov/tests/rt12mln
nProcs   : 6
Slaves : 
5
(
ivb106.35896
ivb106.35901
ivb106.35907
ivb106.35897
ivb106.35918
)

Pstream initialized with:
    floatTransfer     : 0
    nProcsSimpleSum   : 0
    commsType         : blocking
SigFpe   : Enabling floating point exception trapping (FOAM_SIGFPE).

// * * * * * * * * * * * * * * * * * * * * * * * * * * * * * * * * * * * * * //
Create time

Create mesh for time = 0


Reading g
Reading field pd

Reading field alpha1

Reading field U

Reading/calculating face flux field phi

Reading transportProperties

Selecting incompressible transport model Newtonian
Selecting incompressible transport model Newtonian
Calculating field g.h

Selecting turbulence model type laminar
time step continuity errors : sum local = 0, global = 0, cumulative = 0
[4] Building level 0
[2] Building level 0
[1] Building level 0
[3] Building level 0
Created persistent data with name pcorr
[0] Building level 0
[5] Building level 0
[2] Building level 1
[4] Building level 1
[1] Building level 1
[3] Building level 1
Creating AMGLevel 
[0] Building level 1
[5] Building level 1
[2] Building level 2
[3] Building level 2
[1] Building level 2
[4] Building level 2
Creating AMGLevel 
[0] Building level 2
[5] Building level 2
[2] Building level 3
[3] Building level 3
[4] Building level 3
[1] Building level 3
[5] Building level 3
Creating AMGLevel 
[0] Building level 3
[2] Building level 4
[3] Building level 4
[4] Building level 4
[1] Building level 4
[5] Building level 4
Creating AMGLevel 
[0] Building level 4
[2] Building level 5
[3] Building level 5
[4] Building level 5
[1] Building level 5
[2] Building level 6
[5] Building level 5
Creating AMGLevel 
[0] Building level 5
[3] Building level 6
[4] Building level 6
[1] Building level 6
[2] Building level 7
[4] Building level 7
[3] Building level 7
[2] Building level 8
[1] Building level 7
[5] Building level 6
Creating AMGLevel 
[0] Building level 6
[2] Building level 9
[4] Building level 8
[3] Building level 8
[2] Building level 10
[1] Building level 8
[2] Building level 11
[2] Building level 12
[4] Building level 9
[2] Building level 13
[3] Building level 9
[2] Building level 14
[1] Building level 9
[4] Building level 10
[3] Building level 10
[4] Building level 11
[1] Building level 10
[4] Building level 12
[5] Building level 7
[3] Building level 11
[4] Building level 13
[1] Building level 11
Creating AMGLevel 
[0] Building level 7
[3] Building level 12
[4] Building level 14
[1] Building level 12
[3] Building level 13
[1] Building level 13
[3] Building level 14
[1] Building level 14
[5] Building level 8
Creating AMGLevel 
[0] Building level 8
[5] Building level 9
Creating AMGLevel 
[0] Building level 9
[5] Building level 10
Creating AMGLevel 
[0] Building level 10
[5] Building level 11
[5] Building level 12
Creating AMGLevel 
[0] Building level 11
[5] Building level 13
[5] Building level 14
Creating AMGLevel 
[0] Building level 12
Creating AMGLevel 
[0] Building level 13
Creating AMGLevel 
[0] Building level 14
Creating AMGLevel 
14 Level construction complete
PCGAMG:  Solving for pcorr, Initial residual = 0, Final residual = 0, No Iterations 0
time step continuity errors : sum local = 0, global = 0, cumulative = 0
Courant Number mean: 0 max: 0 velocity magnitude: 0

Starting time loop

Courant Number mean: 0 max: 0 velocity magnitude: 0
Time = 0.001

MULES: Solving for alpha1
Liquid phase volume fraction = 0.00275421  Min(alpha1) = 0  Max(alpha1) = 1
MULES: Solving for alpha1
Liquid phase volume fraction = 0.00275421  Min(alpha1) = 0  Max(alpha1) = 1
[3] Building level 0
[2] Building level 0
[4] Building level 0
[1] Building level 0
[5] Building level 0
Created persistent data with name pd
[0] Building level 0
[3] Building level 1
[2] Building level 1
[1] Building level 1
[4] Building level 1
Creating AMGLevel 
[0] Building level 1
[5] Building level 1
[3] Building level 2
[2] Building level 2
[4] Building level 2
[1] Building level 2
Creating AMGLevel 
[0] Building level 2
[5] Building level 2
[3] Building level 3
[2] Building level 3
[1] Building level 3
[4] Building level 3
Creating AMGLevel 
[0] Building level 3
[5] Building level 3
[2] Building level 4
[3] Building level 4
[4] Building level 4
[1] Building level 4
Creating AMGLevel 
[0] Building level 4
[5] Building level 4
[3] Building level 5
[2] Building level 5
[4] Building level 5
[1] Building level 5
Creating AMGLevel 
[0] Building level 5
[2] Building level 6
[3] Building level 6
[5] Building level 5
[4] Building level 6
[1] Building level 6
[2] Building level 7
[3] Building level 7
[4] Building level 7
[1] Building level 7
Creating AMGLevel 
[0] Building level 6
[2] Building level 8
[3] Building level 8
[2] Building level 9
[4] Building level 8
[1] Building level 8
[3] Building level 9
[5] Building level 6
[2] Building level 10
[3] Building level 10
[2] Building level 11
[4] Building level 9
[2] Building level 12
[1] Building level 9
[2] Building level 13
[3] Building level 11
[2] Building level 14
[3] Building level 12
Creating AMGLevel 
[0] Building level 7
[3] Building level 13
[4] Building level 10
[1] Building level 10
[3] Building level 14
[4] Building level 11
[1] Building level 11
[4] Building level 12
[1] Building level 12
[4] Building level 13
[1] Building level 13
[4] Building level 14
[1] Building level 14
[5] Building level 7
Creating AMGLevel 
[0] Building level 8
Creating AMGLevel 
[0] Building level 9
[5] Building level 8
Creating AMGLevel 
[0] Building level 10
Creating AMGLevel 
[0] Building level 11
Creating AMGLevel 
[0] Building level 12
Creating AMGLevel 
[0] Building level 13
[5] Building level 9
Creating AMGLevel 
[0] Building level 14
Creating AMGLevel 
14 Level construction complete
[5] Building level 10
[5] Building level 11
[5] Building level 12
[5] Building level 13
[5] Building level 14
GPU: 1 iters: 0.414633 s: 1.05226 GB/s
PCGAMG:  Solving for pd, Initial residual = 1, Final residual = 0.0349741, No Iterations 1
[1] Building level 0
[4] Building level 0
[3] Building level 0
[5] Building level 0
[2] Building level 0
[0] Building level 0
[4] Building level 1
[0] Building level 1
[1] Building level 1
[2] Building level 1
[3] Building level 1
[5] Building level 1
[4] Building level 2
[0] Building level 2
[2] Building level 2
[1] Building level 2
[5] Building level 2
[3] Building level 2
[4] Building level 3
[2] Building level 3
[1] Building level 3
[0] Building level 3
[3] Building level 3
[5] Building level 3
[2] Building level 4
[1] Building level 4
[4] Building level 4
[3] Building level 4
[5] Building level 4
[0] Building level 4
[1] Building level 5
[2] Building level 5
[4] Building level 5
[3] Building level 5
[5] Building level 5
[0] Building level 5
[1] Building level 6
[2] Building level 6
[3] Building level 6
[4] Building level 6
[5] Building level 6
[1] Building level 7
[2] Building level 7
[0] Building level 6
[1] Building level 8
[4] Building level 7
[3] Building level 7
[2] Building level 8
[1] Building level 9
[1] Building level 10
[5] Building level 7
[2] Building level 9
[1] Building level 11
[1] Building level 12
[4] Building level 8
[1] Building level 13
[2] Building level 10
[1] Building level 14
[3] Building level 8
[2] Building level 11
[2] Building level 12
[2] Building level 13
[2] Building level 14
[4] Building level 9
[0] Building level 7
[5] Building level 8
[3] Building level 9
[4] Building level 10
[4] Building level 11
[3] Building level 10
[4] Building level 12
[4] Building level 13
[4] Building level 14
[3] Building level 11
[3] Building level 12
[5] Building level 9
[3] Building level 13
[3] Building level 14
[0] Building level 8
[5] Building level 10
[5] Building level 11
[5] Building level 12
[5] Building level 13
[5] Building level 14
[0] Building level 9
[0] Building level 10
[0] Building level 11
[0] Building level 12
[0] Building level 13
[0] Building level 14
14 Level construction complete
GPU: 3 iters: 0.82901 s: 1.57888 GB/s
PCGAMG:  Solving for pd, Initial residual = 0.0223996, Final residual = 0.000994464, No Iterations 3
[4] Building level 0
[2] Building level 0
[1] Building level 0
[5] Building level 0
[0] Building level 0
[3] Building level 0
[4] Building level 1
[1] Building level 1
[2] Building level 1
[0] Building level 1
[5] Building level 1
[3] Building level 1
[1] Building level 2
[4] Building level 2
[2] Building level 2
[0] Building level 2
[3] Building level 2
[5] Building level 2
[4] Building level 3
[1] Building level 3
[2] Building level 3
[3] Building level 3
[5] Building level 3
[0] Building level 3
[1] Building level 4
[2] Building level 4
[4] Building level 4
[3] Building level 4
[5] Building level 4
[0] Building level 4
[1] Building level 5
[2] Building level 5
[4] Building level 5
[3] Building level 5
[5] Building level 5
[0] Building level 5
[1] Building level 6
[2] Building level 6
[3] Building level 6
[4] Building level 6
[5] Building level 6
[1] Building level 7
[2] Building level 7
[1] Building level 8
[4] Building level 7
[2] Building level 8
[3] Building level 7
[1] Building level 9
[0] Building level 6
[1] Building level 10
[2] Building level 9
[1] Building level 11
[5] Building level 7
[1] Building level 12
[1] Building level 13
[1] Building level 14
[2] Building level 10
[4] Building level 8
[2] Building level 11
[2] Building level 12
[3] Building level 8
[2] Building level 13
[2] Building level 14
[4] Building level 9
[3] Building level 9
[4] Building level 10
[5] Building level 8
[4] Building level 11
[4] Building level 12
[4] Building level 13
[3] Building level 10
[4] Building level 14
[3] Building level 11
[3] Building level 12
[5] Building level 9
[3] Building level 13
[3] Building level 14
[0] Building level 7
[5] Building level 10
[5] Building level 11
[5] Building level 12
[5] Building level 13
[5] Building level 14
[0] Building level 8
[0] Building level 9
[0] Building level 10
[0] Building level 11
[0] Building level 12
[0] Building level 13
[0] Building level 14
14 Level construction complete
GPU: 50 iters: 10.4541 s: 2.08675 GB/s
PCGAMG:  Solving for pd, Initial residual = 0.00568253, Final residual = 8.52699e-07, No Iterations 50
time step continuity errors : sum local = 6.36596e-11, global = -3.24917e-24, cumulative = -3.24917e-24
ExecutionTime = 99.88 s  ClockTime = 118 s

Courant Number mean: 4.83215e-06 max: 0.00215803 velocity magnitude: 0.0337191
Time = 0.002

MULES: Solving for alpha1
Liquid phase volume fraction = 0.00275421  Min(alpha1) = 0  Max(alpha1) = 1
MULES: Solving for alpha1
Liquid phase volume fraction = 0.00275421  Min(alpha1) = 0  Max(alpha1) = 1
[0] Building level 0
[5] Building level 0
[2] Building level 0
[4] Building level 0
[1] Building level 0
[3] Building level 0
[4] Building level 1
[0] Building level 1
Reconstruction on level 1
[2] Building level 1
[1] Building level 1
[5] Building level 1
[3] Building level 1
[2] Building level 2
[3] Building level 2
[2] Building level 3
[3] Building level 3
[3] Building level 4
[2] Building level 4
[2] Building level 5
[3] Building level 5
[4] Building level 2
[1] Building level 2
Creating AMGLevel 
[0] Building level 2
Reconstruction on level 2
[5] Building level 2
[2] Building level 6
[3] Building level 6
[2] Building level 7
[3] Building level 7
[2] Building level 8
[3] Building level 8
[2] Building level 9
[3] Building level 9
[2] Building level 10
[3] Building level 10
[2] Building level 11
[2] Building level 12
[3] Building level 11
[2] Building level 13
[3] Building level 12
[2] Building level 14
[3] Building level 13
[3] Building level 14
[4] Building level 3
[1] Building level 3
Creating AMGLevel 
[0] Building level 3
Reconstruction on level 3
[5] Building level 3
[1] Building level 4
Creating AMGLevel 
[0] Building level 4
Reconstruction on level 4
[4] Building level 4
[5] Building level 4
[1] Building level 5
Creating AMGLevel 
[0] Building level 5
Reconstruction on level 5
[4] Building level 5
[1] Building level 6
[5] Building level 5
Creating AMGLevel 
[0] Building level 6
Reconstruction on level 6
[1] Building level 7
[4] Building level 6
[1] Building level 8
Creating AMGLevel 
[0] Building level 7
Reconstruction on level 7
[1] Building level 9
[1] Building level 10
[1] Building level 11
[1] Building level 12
[5] Building level 6
[1] Building level 13
[1] Building level 14
Creating AMGLevel 
[0] Building level 8
Reconstruction on level 8
[4] Building level 7
Creating AMGLevel 
[0] Building level 9
Reconstruction on level 9
Creating AMGLevel 
[0] Building level 10
Reconstruction on level 10
[4] Building level 8
Creating AMGLevel 
[0] Building level 11
Reconstruction on level 11
Creating AMGLevel 
[0] Building level 12
Reconstruction on level 12
Creating AMGLevel 
[0] Building level 13
Reconstruction on level 13
[5] Building level 7
Creating AMGLevel 
[0] Building level 14
Reconstruction on level 14
[4] Building level 9
Creating AMGLevel 
14 Level construction complete
[4] Building level 10
[4] Building level 11
[4] Building level 12
[4] Building level 13
[5] Building level 8
[4] Building level 14
[5] Building level 9
[5] Building level 10
[5] Building level 11
[5] Building level 12
[5] Building level 13
[5] Building level 14
GPU: 15 iters: 3.51353 s: 1.86266 GB/s
PCGAMG:  Solving for pd, Initial residual = 0.00463111, Final residual = 0.000225232, No Iterations 15
[5] Building level 0
[4] Building level 0
[1] Building level 0
[0] Building level 0
[2] Building level 0
[3] Building level 0
[4] Building level 1
[1] Building level 1
[0] Building level 1
[2] Building level 1
[5] Building level 1
[3] Building level 1
[0] Building level 2
[4] Building level 2
[1] Building level 2
[2] Building level 2
[5] Building level 2
[3] Building level 2
[4] Building level 3
[1] Building level 3
[0] Building level 3
[2] Building level 3
[5] Building level 3
[3] Building level 3
[1] Building level 4
[0] Building level 4
[2] Building level 4
[4] Building level 4
[3] Building level 4
[5] Building level 4
[1] Building level 5
[0] Building level 5
[2] Building level 5
[4] Building level 5
[1] Building level 6
[3] Building level 5
[0] Building level 6
[1] Building level 7
[2] Building level 6
[1] Building level 8
[5] Building level 5
[0] Building level 7
[1] Building level 9
[4] Building level 6
[1] Building level 10
[1] Building level 11
[1] Building level 12
[1] Building level 13
[1] Building level 14
[3] Building level 6
[0] Building level 8
[0] Building level 9
[2] Building level 7
[0] Building level 10
[0] Building level 11
[0] Building level 12
[0] Building level 13
[0] Building level 14
14 Level construction complete
[4] Building level 7
[2] Building level 8
[3] Building level 7
[2] Building level 9
[4] Building level 8
[5] Building level 6
[2] Building level 10
[3] Building level 8
[2] Building level 11
[2] Building level 12
[2] Building level 13
[2] Building level 14
[4] Building level 9
[3] Building level 9
[4] Building level 10
[4] Building level 11
[4] Building level 12
[3] Building level 10
[4] Building level 13
[4] Building level 14
[3] Building level 11
[3] Building level 12
[3] Building level 13
[3] Building level 14
[5] Building level 7
[5] Building level 8
[5] Building level 9
[5] Building level 10
[5] Building level 11
[5] Building level 12
[5] Building level 13
[5] Building level 14
GPU: 50 iters: 11.2013 s: 1.94754 GB/s
PCGAMG:  Solving for pd, Initial residual = 0.00395198, Final residual = 0.0195077, No Iterations 50
[5] Building level 0
[3] Building level 0
[1] Building level 0
[4] Building level 0
[0] Building level 0
[2] Building level 0
[1] Building level 1
[4] Building level 1
[2] Building level 1
[0] Building level 1
[3] Building level 1
[5] Building level 1
[4] Building level 2
[1] Building level 2
[0] Building level 2
[2] Building level 2
[3] Building level 2
[5] Building level 2
[4] Building level 3
[1] Building level 3
[0] Building level 3
[2] Building level 3
[3] Building level 3
[5] Building level 3
[1] Building level 4
[0] Building level 4
[2] Building level 4
[4] Building level 4
[3] Building level 4
[1] Building level 5
[5] Building level 4
[0] Building level 5
[2] Building level 5
[4] Building level 5
[1] Building level 6
[3] Building level 5
[0] Building level 6
[1] Building level 7
[1] Building level 8
[2] Building level 6
[5] Building level 5
[1] Building level 9
[0] Building level 7
[4] Building level 6
[1] Building level 10
[1] Building level 11
[1] Building level 12
[1] Building level 13
[1] Building level 14
[3] Building level 6
[0] Building level 8
[2] Building level 7
[0] Building level 9
[0] Building level 10
[0] Building level 11
[0] Building level 12
[0] Building level 13
[0] Building level 14
[4] Building level 7
14 Level construction complete
[3] Building level 7
[2] Building level 8
[2] Building level 9
[4] Building level 8
[2] Building level 10
[3] Building level 8
[2] Building level 11
[5] Building level 6
[2] Building level 12
[2] Building level 13
[2] Building level 14
[4] Building level 9
[3] Building level 9
[4] Building level 10
[4] Building level 11
[3] Building level 10
[4] Building level 12
[4] Building level 13
[4] Building level 14
[3] Building level 11
[3] Building level 12
[3] Building level 13
[3] Building level 14
[5] Building level 7
[5] Building level 8
[5] Building level 9
[5] Building level 10
[5] Building level 11
[5] Building level 12
[5] Building level 13
[5] Building level 14
GPU: 50 iters: 11.1822 s: 1.95088 GB/s
PCGAMG:  Solving for pd, Initial residual = 0.0269308, Final residual = 0.0426545, No Iterations 50
time step continuity errors : sum local = 2.09745e-06, global = -4.12639e-08, cumulative = -4.12639e-08
ExecutionTime = 161.68 s  ClockTime = 181 s

Courant Number mean: 1.76578e-05 max: 0.241266 velocity magnitude: 1.88489
Time = 0.003

MULES: Solving for alpha1
Liquid phase volume fraction = 0.00275424  Min(alpha1) = -1.37262e-30  Max(alpha1) = 1.00003
MULES: Solving for alpha1
Liquid phase volume fraction = 0.00275426  Min(alpha1) = -1.71932e-30  Max(alpha1) = 1.00006
[0] Building level 0
[5] Building level 0
[3] Building level 0
[2] Building level 0
[1] Building level 0
[4] Building level 0
[4] Building level 1
[0] Building level 1
Reconstruction on level 1
[1] Building level 1
[2] Building level 1
[5] Building level 1
[3] Building level 1
[1] Building level 2
[2] Building level 2
[5] Building level 2
[3] Building level 2
[2] Building level 3
[3] Building level 3
[2] Building level 4
[3] Building level 4
[1] Building level 3
[5] Building level 3
[2] Building level 5
[3] Building level 5
Creating AMGLevel 
[0] Building level 2
Reconstruction on level 2
[4] Building level 2
[1] Building level 4
[2] Building level 6
[3] Building level 6
[5] Building level 4
[3] Building level 7
[2] Building level 7
[2] Building level 8
[3] Building level 8
[2] Building level 9
[3] Building level 9
[2] Building level 10
[3] Building level 10
[2] Building level 11
[3] Building level 11
[2] Building level 12
[3] Building level 12
[2] Building level 13
[3] Building level 13
[2] Building level 14
[3] Building level 14
[1] Building level 5
[5] Building level 5
Creating AMGLevel 
[0] Building level 3
Reconstruction on level 3
[4] Building level 3
[1] Building level 6
[5] Building level 6
[1] Building level 7
[5] Building level 7
[1] Building level 8
[5] Building level 8
[1] Building level 9
[1] Building level 10
[1] Building level 11
[5] Building level 9
[1] Building level 12
[1] Building level 13
[1] Building level 14
[5] Building level 10
[5] Building level 11
[5] Building level 12
[5] Building level 13
[5] Building level 14
Creating AMGLevel 
[0] Building level 4
Reconstruction on level 4
[4] Building level 4
Creating AMGLevel 
[0] Building level 5
Reconstruction on level 5
[4] Building level 5
Creating AMGLevel 
[0] Building level 6
Reconstruction on level 6
[4] Building level 6
Creating AMGLevel 
[0] Building level 7
Reconstruction on level 7
[4] Building level 7
Creating AMGLevel 
[0] Building level 8
Reconstruction on level 8
Creating AMGLevel 
[0] Building level 9
Reconstruction on level 9
[4] Building level 8
Creating AMGLevel 
[0] Building level 10
Reconstruction on level 10
Creating AMGLevel 
[0] Building level 11
Reconstruction on level 11
Creating AMGLevel 
[0] Building level 12
Reconstruction on level 12
[4] Building level 9
Creating AMGLevel 
[0] Building level 13
Reconstruction on level 13
Creating AMGLevel 
[0] Building level 14
Reconstruction on level 14
Creating AMGLevel 
14 Level construction complete
[4] Building level 10
[4] Building level 11
[4] Building level 12
[4] Building level 13
[4] Building level 14
GPU: 18 iters: 4.17767 s: 1.87986 GB/s
PCGAMG:  Solving for pd, Initial residual = 0.106746, Final residual = 0.00430038, No Iterations 18
[0] Building level 0
[1] Building level 0
[3] Building level 0
[4] Building level 0
[5] Building level 0
[2] Building level 0
[0] Building level 1
[1] Building level 1
[2] Building level 1
[4] Building level 1
[5] Building level 1
[3] Building level 1
[0] Building level 2
[1] Building level 2
[2] Building level 2
[4] Building level 2
[3] Building level 2
[5] Building level 2
[0] Building level 3
[1] Building level 3
[2] Building level 3
[4] Building level 3
[3] Building level 3
[5] Building level 3
[1] Building level 4
[0] Building level 4
[2] Building level 4
[4] Building level 4
[3] Building level 4
[5] Building level 4
[1] Building level 5
[0] Building level 5
[2] Building level 5
[4] Building level 5
[3] Building level 5
[1] Building level 6
[0] Building level 6
[4] Building level 6
[2] Building level 6
[3] Building level 6
[1] Building level 7
[5] Building level 5
[0] Building level 7
[1] Building level 8
[1] Building level 9
[4] Building level 7
[2] Building level 7
[1] Building level 10
[3] Building level 7
[0] Building level 8
[1] Building level 11
[1] Building level 12
[1] Building level 13
[1] Building level 14
[0] Building level 9
[4] Building level 8
[2] Building level 8
[0] Building level 10
[0] Building level 11
[3] Building level 8
[0] Building level 12
[0] Building level 13
[0] Building level 14
14 Level construction complete
[2] Building level 9
[4] Building level 9
[3] Building level 9
[2] Building level 10
[4] Building level 10
[3] Building level 10
[2] Building level 11
[4] Building level 11
[2] Building level 12
[4] Building level 12
[2] Building level 13
[3] Building level 11
[4] Building level 13
[2] Building level 14
[4] Building level 14
[5] Building level 6
[3] Building level 12
[3] Building level 13
[3] Building level 14
[5] Building level 7
[5] Building level 8
[5] Building level 9
[5] Building level 10
[5] Building level 11
[5] Building level 12
[5] Building level 13
[5] Building level 14
GPU: 50 iters: 11.2752 s: 1.93478 GB/s
PCGAMG:  Solving for pd, Initial residual = 0.0194464, Final residual = 0.00648085, No Iterations 50
[4] Building level 0
[0] Building level 0
[3] Building level 0
[5] Building level 0
[1] Building level 0
[2] Building level 0
[4] Building level 1
[2] Building level 1
[0] Building level 1
[1] Building level 1
[5] Building level 1
[3] Building level 1
[1] Building level 2
[0] Building level 2
[4] Building level 2
[2] Building level 2
[5] Building level 2
[3] Building level 2
[0] Building level 3
[1] Building level 3
[4] Building level 3
[2] Building level 3
[3] Building level 3
[5] Building level 3
[1] Building level 4
[0] Building level 4
[4] Building level 4
[2] Building level 4
[3] Building level 4
[5] Building level 4
[1] Building level 5
[0] Building level 5
[4] Building level 5
[2] Building level 5
[3] Building level 5
[1] Building level 6
[4] Building level 6
[0] Building level 6
[5] Building level 5
[2] Building level 6
[1] Building level 7
[3] Building level 6
[1] Building level 8
[0] Building level 7
[4] Building level 7
[1] Building level 9
[2] Building level 7
[1] Building level 10
[1] Building level 11
[1] Building level 12
[1] Building level 13
[1] Building level 14
[3] Building level 7
[0] Building level 8
[4] Building level 8
[0] Building level 9
[2] Building level 8
[4] Building level 9
[0] Building level 10
[0] Building level 11
[3] Building level 8
[4] Building level 10
[0] Building level 12
[0] Building level 13
[2] Building level 9
[0] Building level 14
14 Level construction complete
[4] Building level 11
[5] Building level 6
[4] Building level 12
[4] Building level 13
[4] Building level 14
[2] Building level 10
[3] Building level 9
[2] Building level 11
[2] Building level 12
[2] Building level 13
[2] Building level 14
[3] Building level 10
[3] Building level 11
[3] Building level 12
[3] Building level 13
[3] Building level 14
[5] Building level 7
[5] Building level 8
[5] Building level 9
[5] Building level 10
[5] Building level 11
[5] Building level 12
[5] Building level 13
[5] Building level 14
GPU: 50 iters: 11.2469 s: 1.93965 GB/s
PCGAMG:  Solving for pd, Initial residual = 0.016313, Final residual = 8.55971e-05, No Iterations 50
time step continuity errors : sum local = 2.58553e-08, global = -2.1369e-08, cumulative = -6.26329e-08
ExecutionTime = 224.4 s  ClockTime = 245 s

Courant Number mean: 1.61783e-05 max: 0.127323 velocity magnitude: 0.994711
Time = 0.004

MULES: Solving for alpha1
Liquid phase volume fraction = 0.00275427  Min(alpha1) = -4.74046e-30  Max(alpha1) = 1.00006
MULES: Solving for alpha1
Liquid phase volume fraction = 0.00275428  Min(alpha1) = -1.79847e-30  Max(alpha1) = 1.00006
[5] Building level 0
[0] Building level 0
[3] Building level 0
[1] Building level 0
[2] Building level 0
[4] Building level 0
[0] Building level 1
Reconstruction on level 1
[4] Building level 1
[1] Building level 1
[2] Building level 1
[3] Building level 1
[5] Building level 1
[1] Building level 2
[2] Building level 2
[3] Building level 2
[2] Building level 3
[3] Building level 3
[2] Building level 4
[3] Building level 4
[1] Building level 3
[2] Building level 5
[3] Building level 5
Creating AMGLevel 
[0] Building level 2
Reconstruction on level 2
[4] Building level 2
[5] Building level 2
[1] Building level 4
[2] Building level 6
[3] Building level 6
[2] Building level 7
[3] Building level 7
[2] Building level 8
[3] Building level 8
[2] Building level 9
[3] Building level 9
[2] Building level 10
[3] Building level 10
[3] Building level 11
[2] Building level 11
[2] Building level 12
[3] Building level 12
[2] Building level 13
[3] Building level 13
[2] Building level 14
[3] Building level 14
[1] Building level 5
Creating AMGLevel 
[0] Building level 3
Reconstruction on level 3
[4] Building level 3
[5] Building level 3
[1] Building level 6
[1] Building level 7
[1] Building level 8
[1] Building level 9
[1] Building level 10
[1] Building level 11
[1] Building level 12
[1] Building level 13
[1] Building level 14
Creating AMGLevel 
[0] Building level 4
Reconstruction on level 4
[4] Building level 4
[5] Building level 4
Creating AMGLevel 
[0] Building level 5
Reconstruction on level 5
[4] Building level 5
[5] Building level 5
Creating AMGLevel 
[0] Building level 6
Reconstruction on level 6
[4] Building level 6
[5] Building level 6
Creating AMGLevel 
[0] Building level 7
Reconstruction on level 7
[4] Building level 7
[5] Building level 7
Creating AMGLevel 
[0] Building level 8
Reconstruction on level 8
[4] Building level 8
[5] Building level 8
Creating AMGLevel 
[0] Building level 9
Reconstruction on level 9
[4] Building level 9
Creating AMGLevel 
[0] Building level 10
Reconstruction on level 10
[5] Building level 9
Creating AMGLevel 
[0] Building level 11
Reconstruction on level 11
[4] Building level 10
Creating AMGLevel 
[0] Building level 12
Reconstruction on level 12
Creating AMGLevel 
[0] Building level 13
Reconstruction on level 13
[5] Building level 10
[4] Building level 11
Creating AMGLevel 
[0] Building level 14
Reconstruction on level 14
Creating AMGLevel 
14 Level construction complete
[4] Building level 12
[5] Building level 11
[4] Building level 13
[5] Building level 12
[4] Building level 14
[5] Building level 13
[5] Building level 14
GPU: 4 iters: 1.07337 s: 1.62592 GB/s
PCGAMG:  Solving for pd, Initial residual = 0.112396, Final residual = 0.00511748, No Iterations 4
[4] Building level 0
[1] Building level 0
[5] Building level 0
[0] Building level 0
[2] Building level 0
[3] Building level 0
[0] Building level 1
[1] Building level 1
[4] Building level 1
[2] Building level 1
[3] Building level 1
[5] Building level 1
[1] Building level 2
[4] Building level 2
[0] Building level 2
[2] Building level 2
[3] Building level 2
[5] Building level 2
[1] Building level 3
[4] Building level 3
[2] Building level 3
[0] Building level 3
[3] Building level 3
[5] Building level 3
[1] Building level 4
[2] Building level 4
[0] Building level 4
[4] Building level 4
[3] Building level 4
[5] Building level 4
[1] Building level 5
[2] Building level 5
[0] Building level 5
[4] Building level 5
[3] Building level 5
[1] Building level 6
[2] Building level 6
[0] Building level 6
[4] Building level 6
[3] Building level 6
[5] Building level 5
[1] Building level 7
[1] Building level 8
[2] Building level 7
[0] Building level 7
[4] Building level 7
[1] Building level 9
[3] Building level 7
[1] Building level 10
[1] Building level 11
[1] Building level 12
[2] Building level 8
[1] Building level 13
[1] Building level 14
[0] Building level 8
[4] Building level 8
[2] Building level 9
[3] Building level 8
[0] Building level 9
[2] Building level 10
[4] Building level 9
[2] Building level 11
[0] Building level 10
[2] Building level 12
[2] Building level 13
[4] Building level 10
[2] Building level 14
[0] Building level 11
[3] Building level 9
[0] Building level 12
[4] Building level 11
[0] Building level 13
[0] Building level 14
14 Level construction complete
[4] Building level 12
[4] Building level 13
[4] Building level 14
[3] Building level 10
[3] Building level 11
[5] Building level 6
[3] Building level 12
[3] Building level 13
[3] Building level 14
[5] Building level 7
[5] Building level 8
[5] Building level 9
[5] Building level 10
[5] Building level 11
[5] Building level 12
[5] Building level 13
[5] Building level 14
GPU: 36 iters: 7.98324 s: 1.96748 GB/s
PCGAMG:  Solving for pd, Initial residual = 0.0249306, Final residual = 0.00113724, No Iterations 36
[4] Building level 0
[3] Building level 0
[1] Building level 0
[5] Building level 0
[0] Building level 0
[2] Building level 0
[4] Building level 1
[2] Building level 1
[0] Building level 1
[1] Building level 1
[5] Building level 1
[3] Building level 1
[4] Building level 2
[1] Building level 2
[0] Building level 2
[2] Building level 2
[5] Building level 2
[3] Building level 2
[4] Building level 3
[1] Building level 3
[2] Building level 3
[0] Building level 3
[3] Building level 3
[5] Building level 3
[1] Building level 4
[4] Building level 4
[2] Building level 4
[0] Building level 4
[3] Building level 4
[5] Building level 4
[1] Building level 5
[4] Building level 5
[2] Building level 5
[0] Building level 5
[3] Building level 5
[1] Building level 6
[4] Building level 6
[2] Building level 6
[0] Building level 6
[5] Building level 5
[1] Building level 7
[3] Building level 6
[4] Building level 7
[1] Building level 8
[2] Building level 7
[0] Building level 7
[1] Building level 9
[1] Building level 10
[4] Building level 8
[1] Building level 11
[2] Building level 8
[1] Building level 12
[3] Building level 7
[1] Building level 13
[1] Building level 14
[0] Building level 8
[4] Building level 9
[2] Building level 9
[4] Building level 10
[4] Building level 11
[2] Building level 10
[4] Building level 12
[0] Building level 9
[4] Building level 13
[4] Building level 14
[2] Building level 11
[3] Building level 8
[2] Building level 12
[2] Building level 13
[2] Building level 14
[0] Building level 10
[0] Building level 11
[5] Building level 6
[0] Building level 12
[0] Building level 13
[0] Building level 14
14 Level construction complete
[3] Building level 9
[3] Building level 10
[3] Building level 11
[3] Building level 12
[3] Building level 13
[3] Building level 14
[5] Building level 7
[5] Building level 8
[5] Building level 9
[5] Building level 10
[5] Building level 11
[5] Building level 12
[5] Building level 13
[5] Building level 14
GPU: 50 iters: 10.9479 s: 1.99262 GB/s
PCGAMG:  Solving for pd, Initial residual = 0.0245886, Final residual = 0.00883294, No Iterations 50
time step continuity errors : sum local = 4.68975e-07, global = -8.80181e-09, cumulative = -7.14347e-08
ExecutionTime = 280.66 s  ClockTime = 303 s

Courant Number mean: 2.03468e-05 max: 0.0646082 velocity magnitude: 0.504751
Time = 0.005

MULES: Solving for alpha1
Liquid phase volume fraction = 0.00275428  Min(alpha1) = -2.81523e-29  Max(alpha1) = 1.00006
MULES: Solving for alpha1
Liquid phase volume fraction = 0.00275429  Min(alpha1) = -9.02409e-31  Max(alpha1) = 1.00006
[3] Building level 0
[5] Building level 0
[1] Building level 0
[4] Building level 0
[0] Building level 0
[2] Building level 0
[4] Building level 1
[0] Building level 1
Reconstruction on level 1
[1] Building level 1
[2] Building level 1
[3] Building level 1
[5] Building level 1
[1] Building level 2
[2] Building level 2
[3] Building level 2
[2] Building level 3
[3] Building level 3
[2] Building level 4
[3] Building level 4
[1] Building level 3
[2] Building level 5
[3] Building level 5
[4] Building level 2
Creating AMGLevel 
[0] Building level 2
Reconstruction on level 2
[5] Building level 2
[1] Building level 4
[2] Building level 6
[3] Building level 6
[2] Building level 7
[3] Building level 7
[2] Building level 8
[3] Building level 8
[2] Building level 9
[3] Building level 9
[2] Building level 10
[3] Building level 10
[2] Building level 11
[3] Building level 11
[2] Building level 12
[3] Building level 12
[2] Building level 13
[3] Building level 13
[2] Building level 14
[3] Building level 14
[1] Building level 5
[4] Building level 3
Creating AMGLevel 
[0] Building level 3
Reconstruction on level 3
[5] Building level 3
[1] Building level 6
[1] Building level 7
[1] Building level 8
[1] Building level 9
[1] Building level 10
[1] Building level 11
[1] Building level 12
[1] Building level 13
[1] Building level 14
[4] Building level 4
Creating AMGLevel 
[0] Building level 4
Reconstruction on level 4
[5] Building level 4
[4] Building level 5
Creating AMGLevel 
[0] Building level 5
Reconstruction on level 5
[5] Building level 5
[4] Building level 6
Creating AMGLevel 
[0] Building level 6
Reconstruction on level 6
[5] Building level 6
[4] Building level 7
Creating AMGLevel 
[0] Building level 7
Reconstruction on level 7
[5] Building level 7
[4] Building level 8
Creating AMGLevel 
[0] Building level 8
Reconstruction on level 8
[4] Building level 9
[5] Building level 8
[4] Building level 10
[4] Building level 11
Creating AMGLevel 
[0] Building level 9
Reconstruction on level 9
[4] Building level 12
[4] Building level 13
[4] Building level 14
[5] Building level 9
Creating AMGLevel 
[0] Building level 10
Reconstruction on level 10
Creating AMGLevel 
[0] Building level 11
Reconstruction on level 11
[5] Building level 10
Creating AMGLevel 
[0] Building level 12
Reconstruction on level 12
Creating AMGLevel 
[0] Building level 13
Reconstruction on level 13
[5] Building level 11
Creating AMGLevel 
[0] Building level 14
Reconstruction on level 14
Creating AMGLevel 
14 Level construction complete
[5] Building level 12
[5] Building level 13
[5] Building level 14
GPU: 50 iters: 11.1771 s: 1.95176 GB/s
PCGAMG:  Solving for pd, Initial residual = 0.117342, Final residual = 0.0148937, No Iterations 50
[3] Building level 0
[5] Building level 0
[4] Building level 0
[0] Building level 0
[2] Building level 0
[1] Building level 0
[0] Building level 1
[1] Building level 1
[4] Building level 1
[2] Building level 1
[5] Building level 1
[3] Building level 1
[4] Building level 2
[1] Building level 2
[0] Building level 2
[2] Building level 2
[3] Building level 2
[5] Building level 2
[4] Building level 3
[1] Building level 3
[0] Building level 3
[2] Building level 3
[3] Building level 3
[5] Building level 3
[1] Building level 4
[2] Building level 4
[4] Building level 4
[3] Building level 4
[0] Building level 4
[5] Building level 4
[1] Building level 5
[2] Building level 5
[4] Building level 5
[3] Building level 5
[0] Building level 5
[1] Building level 6
[5] Building level 5
[2] Building level 6
[1] Building level 7
[4] Building level 6
[3] Building level 6
[1] Building level 8
[0] Building level 6
[2] Building level 7
[1] Building level 9
[1] Building level 10
[4] Building level 7
[1] Building level 11
[1] Building level 12
[1] Building level 13
[1] Building level 14
[3] Building level 7
[2] Building level 8
[4] Building level 8
[0] Building level 7
[2] Building level 9
[5] Building level 6
[2] Building level 10
[3] Building level 8
[4] Building level 9
[2] Building level 11
[2] Building level 12
[2] Building level 13
[2] Building level 14
[4] Building level 10
[3] Building level 9
[4] Building level 11
[4] Building level 12
[4] Building level 13
[4] Building level 14
[0] Building level 8
[3] Building level 10
[3] Building level 11
[3] Building level 12
[3] Building level 13
[3] Building level 14
[0] Building level 9
[0] Building level 10
[5] Building level 7
[0] Building level 11
[0] Building level 12
[0] Building level 13
[0] Building level 14
14 Level construction complete
[5] Building level 8
[5] Building level 9
[5] Building level 10
[5] Building level 11
[5] Building level 12
[5] Building level 13
[5] Building level 14
GPU: 20 iters: 4.6092 s: 1.89318 GB/s
PCGAMG:  Solving for pd, Initial residual = 0.0360552, Final residual = 0.00125049, No Iterations 20
[2] Building level 0
[1] Building level 0
[5] Building level 0
[3] Building level 0
[4] Building level 0
[0] Building level 0
[2] Building level 1
[4] Building level 1
[1] Building level 1
[0] Building level 1
[5] Building level 1
[3] Building level 1
[1] Building level 2
[4] Building level 2
[2] Building level 2
[0] Building level 2
[5] Building level 2
[3] Building level 2
[1] Building level 3
[4] Building level 3
[2] Building level 3
[0] Building level 3
[3] Building level 3
[5] Building level 3
[1] Building level 4
[2] Building level 4
[4] Building level 4
[3] Building level 4
[0] Building level 4
[5] Building level 4
[1] Building level 5
[2] Building level 5
[4] Building level 5
[3] Building level 5
[1] Building level 6
[0] Building level 5
[5] Building level 5
[2] Building level 6
[1] Building level 7
[4] Building level 6
[3] Building level 6
[1] Building level 8
[2] Building level 7
[1] Building level 9
[0] Building level 6
[1] Building level 10
[1] Building level 11
[1] Building level 12
[1] Building level 13
[1] Building level 14
[2] Building level 8
[4] Building level 7
[5] Building level 6
[3] Building level 7
[2] Building level 9
[2] Building level 10
[2] Building level 11
[2] Building level 12
[4] Building level 8
[2] Building level 13
[2] Building level 14
[0] Building level 7
[3] Building level 8
[4] Building level 9
[4] Building level 10
[5] Building level 7
[3] Building level 9
[4] Building level 11
[4] Building level 12
[4] Building level 13
[3] Building level 10
[4] Building level 14
[0] Building level 8
[3] Building level 11
[3] Building level 12
[3] Building level 13
[3] Building level 14
[0] Building level 9
[5] Building level 8
[0] Building level 10
[0] Building level 11
[0] Building level 12
[0] Building level 13
[0] Building level 14
14 Level construction complete
[5] Building level 9
[5] Building level 10
[5] Building level 11
[5] Building level 12
[5] Building level 13
[5] Building level 14
GPU: 50 iters: 11.185 s: 1.95038 GB/s
PCGAMG:  Solving for pd, Initial residual = 0.0312513, Final residual = 0.000337857, No Iterations 50
time step continuity errors : sum local = 1.93541e-08, global = -1.68159e-09, cumulative = -7.31163e-08
ExecutionTime = 343.96 s  ClockTime = 368 s

Courant Number mean: 2.43106e-05 max: 0.0274216 velocity magnitude: 0.214826
Time = 0.006

MULES: Solving for alpha1
Liquid phase volume fraction = 0.00275429  Min(alpha1) = -8.03455e-31  Max(alpha1) = 1.00006
MULES: Solving for alpha1
Liquid phase volume fraction = 0.00275429  Min(alpha1) = -5.49925e-30  Max(alpha1) = 1.00006
[1] Building level 0
[5] Building level 0
[3] Building level 0
[4] Building level 0
[2] Building level 0
[0] Building level 0
[4] Building level 1
[0] Building level 1
Reconstruction on level 1
[1] Building level 1
[2] Building level 1
[3] Building level 1
[5] Building level 1
[4] Building level 2
[2] Building level 2
[3] Building level 2
[2] Building level 3
[3] Building level 3
[2] Building level 4
[3] Building level 4
[4] Building level 3
[2] Building level 5
[3] Building level 5
Creating AMGLevel 
[5] Building level 2
[0] Building level 2
Reconstruction on level 2
[1] Building level 2
[2] Building level 6
[3] Building level 6
[4] Building level 4
[3] Building level 7
[2] Building level 7
[3] Building level 8
[2] Building level 8
[3] Building level 9
[2] Building level 9
[2] Building level 10
[3] Building level 10
[2] Building level 11
[3] Building level 11
[2] Building level 12
[3] Building level 12
[2] Building level 13
[3] Building level 13
[2] Building level 14
[3] Building level 14
[4] Building level 5
[1] Building level 3
Creating AMGLevel 
[0] Building level 3
Reconstruction on level 3
[5] Building level 3
[4] Building level 6
[4] Building level 7
[4] Building level 8
[4] Building level 9
[4] Building level 10
[4] Building level 11
[4] Building level 12
[4] Building level 13
[4] Building level 14
[1] Building level 4
Creating AMGLevel 
[0] Building level 4
Reconstruction on level 4
[5] Building level 4
[1] Building level 5
Creating AMGLevel 
[0] Building level 5
Reconstruction on level 5
[5] Building level 5
[1] Building level 6
Creating AMGLevel 
[0] Building level 6
Reconstruction on level 6
[5] Building level 6
[1] Building level 7
Creating AMGLevel 
[0] Building level 7
Reconstruction on level 7
[5] Building level 7
[1] Building level 8
Creating AMGLevel 
[0] Building level 8
Reconstruction on level 8
[5] Building level 8
[1] Building level 9
Creating AMGLevel 
[0] Building level 9
Reconstruction on level 9
[1] Building level 10
[5] Building level 9
[1] Building level 11
Creating AMGLevel 
[0] Building level 10
Reconstruction on level 10
[1] Building level 12
[5] Building level 10
[1] Building level 13
Creating AMGLevel 
[0] Building level 11
Reconstruction on level 11
[1] Building level 14
[5] Building level 11
Creating AMGLevel 
[0] Building level 12
Reconstruction on level 12
Creating AMGLevel 
[0] Building level 13
Reconstruction on level 13
[5] Building level 12
Creating AMGLevel 
[0] Building level 14
Reconstruction on level 14
[5] Building level 13
Creating AMGLevel 
14 Level construction complete
[5] Building level 14
GPU: 23 iters: 5.10426 s: 1.96599 GB/s
PCGAMG:  Solving for pd, Initial residual = 0.11899, Final residual = 0.00546938, No Iterations 23
[3] Building level 0
[5] Building level 0
[1] Building level 0
[0] Building level 0
[4] Building level 0
[2] Building level 0
[4] Building level 1
[0] Building level 1
[1] Building level 1
[2] Building level 1
[5] Building level 1
[3] Building level 1
[0] Building level 2
[4] Building level 2
[1] Building level 2
[2] Building level 2
[5] Building level 2
[3] Building level 2
[0] Building level 3
[4] Building level 3
[1] Building level 3
[2] Building level 3
[3] Building level 3
[5] Building level 3
[0] Building level 4
[1] Building level 4
[4] Building level 4
[2] Building level 4
[3] Building level 4
[5] Building level 4
[0] Building level 5
[1] Building level 5
[4] Building level 5
[2] Building level 5
[3] Building level 5
[0] Building level 6
[1] Building level 6
[4] Building level 6
[5] Building level 5
[0] Building level 7
[3] Building level 6
[2] Building level 6
[0] Building level 8
[1] Building level 7
[4] Building level 7
[0] Building level 9
[0] Building level 10
[0] Building level 11
[0] Building level 12
[1] Building level 8
[0] Building level 13
[0] Building level 14
[4] Building level 8
14 Level construction complete
[3] Building level 7
[2] Building level 7
[1] Building level 9
[4] Building level 9
[1] Building level 10
[4] Building level 10
[1] Building level 11
[4] Building level 11
[1] Building level 12
[3] Building level 8
[1] Building level 13
[4] Building level 12
[1] Building level 14
[4] Building level 13
[2] Building level 8
[5] Building level 6
[4] Building level 14
[3] Building level 9
[2] Building level 9
[3] Building level 10
[2] Building level 10
[3] Building level 11
[2] Building level 11
[3] Building level 12
[3] Building level 13
[3] Building level 14
[2] Building level 12
[2] Building level 13
[2] Building level 14
[5] Building level 7
[5] Building level 8
[5] Building level 9
[5] Building level 10
[5] Building level 11
[5] Building level 12
[5] Building level 13
[5] Building level 14
GPU: 13 iters: 2.98625 s: 1.89935 GB/s
PCGAMG:  Solving for pd, Initial residual = 0.0301589, Final residual = 0.00144223, No Iterations 13
[5] Building level 0
[1] Building level 0
[2] Building level 0
[4] Building level 0
[0] Building level 0
[3] Building level 0
[2] Building level 1
[0] Building level 1
[4] Building level 1
[1] Building level 1
[5] Building level 1
[3] Building level 1
[0] Building level 2
[4] Building level 2
[2] Building level 2
[1] Building level 2
[5] Building level 2
[3] Building level 2
[0] Building level 3
[4] Building level 3
[2] Building level 3
[1] Building level 3
[3] Building level 3
[5] Building level 3
[0] Building level 4
[1] Building level 4
[2] Building level 4
[3] Building level 4
[4] Building level 4
[5] Building level 4
[0] Building level 5
[1] Building level 5
[2] Building level 5
[3] Building level 5
[4] Building level 5
[0] Building level 6
[1] Building level 6
[5] Building level 5
[2] Building level 6
[0] Building level 7
[3] Building level 6
[0] Building level 8
[1] Building level 7
[4] Building level 6
[2] Building level 7
[0] Building level 9
[0] Building level 10
[0] Building level 11
[1] Building level 8
[0] Building level 12
[0] Building level 13
[0] Building level 14
14 Level construction complete
[2] Building level 8
[3] Building level 7
[1] Building level 9
[1] Building level 10
[2] Building level 9
[1] Building level 11
[5] Building level 6
[1] Building level 12
[1] Building level 13
[4] Building level 7
[1] Building level 14
[2] Building level 10
[2] Building level 11
[3] Building level 8
[2] Building level 12
[2] Building level 13
[2] Building level 14
[3] Building level 9
[4] Building level 8
[3] Building level 10
[3] Building level 11
[3] Building level 12
[3] Building level 13
[3] Building level 14
[4] Building level 9
[5] Building level 7
[4] Building level 10
[4] Building level 11
[4] Building level 12
[4] Building level 13
[4] Building level 14
[5] Building level 8
[5] Building level 9
[5] Building level 10
[5] Building level 11
[5] Building level 12
[5] Building level 13
[5] Building level 14
GPU: 50 iters: 10.8167 s: 2.01679 GB/s
PCGAMG:  Solving for pd, Initial residual = 0.0312557, Final residual = 3.42491e-05, No Iterations 50
time step continuity errors : sum local = 1.83764e-09, global = 5.3618e-11, cumulative = -7.30627e-08
ExecutionTime = 399.06 s  ClockTime = 424 s

Courant Number mean: 2.93017e-05 max: 0.0265525 velocity magnitude: 0.207551
Time = 0.007

MULES: Solving for alpha1
Liquid phase volume fraction = 0.00275429  Min(alpha1) = -2.38354e-30  Max(alpha1) = 1.00006
MULES: Solving for alpha1
Liquid phase volume fraction = 0.00275429  Min(alpha1) = -1.70315e-30  Max(alpha1) = 1.00006
[3] Building level 0
[4] Building level 0
[5] Building level 0
[2] Building level 0
[0] Building level 0
[1] Building level 0
[1] Building level 1
[4] Building level 1
[2] Building level 1
[0] Building level 1
Reconstruction on level 1
[3] Building level 1
[5] Building level 1
[2] Building level 2
[3] Building level 2
[2] Building level 3
[3] Building level 3
[2] Building level 4
[3] Building level 4
[2] Building level 5
[3] Building level 5
Creating AMGLevel 
[0] Building level 2
Reconstruction on level 2
[1] Building level 2
[4] Building level 2
[5] Building level 2
[2] Building level 6
[3] Building level 6
[2] Building level 7
[3] Building level 7
[2] Building level 8
[3] Building level 8
[2] Building level 9
[3] Building level 9
[2] Building level 10
[3] Building level 10
[2] Building level 11
[3] Building level 11
[2] Building level 12
[2] Building level 13
[3] Building level 12
[2] Building level 14
[3] Building level 13
[3] Building level 14
Creating AMGLevel 
[4] Building level 3
[0] Building level 3
Reconstruction on level 3
[1] Building level 3
[5] Building level 3
[4] Building level 4
Creating AMGLevel 
[0] Building level 4
Reconstruction on level 4
[1] Building level 4
[5] Building level 4
[4] Building level 5
Creating AMGLevel 
[0] Building level 5
Reconstruction on level 5
[1] Building level 5
[5] Building level 5
[4] Building level 6
Creating AMGLevel 
[0] Building level 6
Reconstruction on level 6
[1] Building level 6
[5] Building level 6
[4] Building level 7
Creating AMGLevel 
[0] Building level 7
Reconstruction on level 7
[1] Building level 7
[4] Building level 8
[5] Building level 7
Creating AMGLevel 
[0] Building level 8
Reconstruction on level 8
[1] Building level 8
[4] Building level 9
Creating AMGLevel 
[0] Building level 9
Reconstruction on level 9
[4] Building level 10
[1] Building level 9
[4] Building level 11
[5] Building level 8
Creating AMGLevel 
[4] Building level 12
[0] Building level 10
Reconstruction on level 10
[4] Building level 13
[1] Building level 10
Creating AMGLevel 
[0] Building level 11
Reconstruction on level 11
[4] Building level 14
[1] Building level 11
Creating AMGLevel 
[0] Building level 12
Reconstruction on level 12
Creating AMGLevel 
[0] Building level 13
Reconstruction on level 13
[1] Building level 12
Creating AMGLevel 
[0] Building level 14
Reconstruction on level 14
[5] Building level 9
[1] Building level 13
Creating AMGLevel 
14 Level construction complete
[1] Building level 14
[5] Building level 10
[5] Building level 11
[5] Building level 12
[5] Building level 13
[5] Building level 14
GPU: 26 iters: 5.63784 s: 2.01209 GB/s
PCGAMG:  Solving for pd, Initial residual = 0.118717, Final residual = 0.00510161, No Iterations 26
[1] Building level 0
[5] Building level 0
[2] Building level 0
[3] Building level 0
[4] Building level 0
[0] Building level 0
[4] Building level 1
[1] Building level 1
[0] Building level 1
[2] Building level 1
[5] Building level 1
[3] Building level 1
[4] Building level 2
[0] Building level 2
[1] Building level 2
[2] Building level 2
[3] Building level 2
[5] Building level 2
[4] Building level 3
[0] Building level 3
[1] Building level 3
[2] Building level 3
[3] Building level 3
[5] Building level 3
[0] Building level 4
[1] Building level 4
[2] Building level 4
[4] Building level 4
[3] Building level 4
[5] Building level 4
[0] Building level 5
[2] Building level 5
[1] Building level 5
[4] Building level 5
[3] Building level 5
[0] Building level 6
[2] Building level 6
[4] Building level 6
[1] Building level 6
[5] Building level 5
[3] Building level 6
[0] Building level 7
[1] Building level 7
[2] Building level 7
[4] Building level 7
[0] Building level 8
[0] Building level 9
[2] Building level 8
[1] Building level 8
[3] Building level 7
[4] Building level 8
[0] Building level 10
[0] Building level 11
[0] Building level 12
[0] Building level 13
[0] Building level 14
[2] Building level 9
14 Level construction complete
[1] Building level 9
[4] Building level 9
[2] Building level 10
[1] Building level 10
[2] Building level 11
[4] Building level 10
[1] Building level 11
[2] Building level 12
[3] Building level 8
[2] Building level 13
[1] Building level 12
[2] Building level 14
[4] Building level 11
[1] Building level 13
[1] Building level 14
[4] Building level 12
[4] Building level 13
[4] Building level 14
[5] Building level 6
[3] Building level 9
[3] Building level 10
[3] Building level 11
[3] Building level 12
[3] Building level 13
[3] Building level 14
[5] Building level 7
[5] Building level 8
[5] Building level 9
[5] Building level 10
[5] Building level 11
[5] Building level 12
[5] Building level 13
[5] Building level 14
GPU: 8 iters: 1.86981 s: 1.86672 GB/s
PCGAMG:  Solving for pd, Initial residual = 0.0297281, Final residual = 0.000787912, No Iterations 8
[3] Building level 0
[1] Building level 0
[2] Building level 0
[5] Building level 0
[0] Building level 0
[4] Building level 0
[0] Building level 1
[2] Building level 1
[4] Building level 1
[1] Building level 1
[5] Building level 1
[3] Building level 1
[0] Building level 2
[4] Building level 2
[1] Building level 2
[2] Building level 2
[5] Building level 2
[3] Building level 2
[0] Building level 3
[4] Building level 3
[2] Building level 3
[1] Building level 3
[3] Building level 3
[5] Building level 3
[0] Building level 4
[2] Building level 4
[1] Building level 4
[4] Building level 4
[3] Building level 4
[5] Building level 4
[0] Building level 5
[2] Building level 5
[1] Building level 5
[3] Building level 5
[4] Building level 5
[0] Building level 6
[2] Building level 6
[1] Building level 6
[5] Building level 5
[3] Building level 6
[0] Building level 7
[4] Building level 6
[2] Building level 7
[1] Building level 7
[0] Building level 8
[2] Building level 8
[0] Building level 9
[0] Building level 10
[3] Building level 7
[0] Building level 11
[1] Building level 8
[0] Building level 12
[4] Building level 7
[2] Building level 9
[0] Building level 13
[0] Building level 14
14 Level construction complete
[2] Building level 10
[1] Building level 9
[2] Building level 11
[2] Building level 12
[2] Building level 13
[2] Building level 14
[1] Building level 10
[3] Building level 8
[5] Building level 6
[1] Building level 11
[1] Building level 12
[1] Building level 13
[4] Building level 8
[1] Building level 14
[3] Building level 9
[3] Building level 10
[4] Building level 9
[3] Building level 11
[3] Building level 12
[3] Building level 13
[3] Building level 14
[4] Building level 10
[4] Building level 11
[4] Building level 12
[4] Building level 13
[4] Building level 14
[5] Building level 7
[5] Building level 8
[5] Building level 9
[5] Building level 10
[5] Building level 11
[5] Building level 12
[5] Building level 13
[5] Building level 14
GPU: 50 iters: 10.5998 s: 2.05806 GB/s
PCGAMG:  Solving for pd, Initial residual = 0.0310003, Final residual = 1.42351e-05, No Iterations 50
time step continuity errors : sum local = 8.50266e-10, global = 1.12353e-10, cumulative = -7.29503e-08
ExecutionTime = 453.97 s  ClockTime = 480 s

Courant Number mean: 3.43902e-05 max: 0.0113674 velocity magnitude: 0.147103
Time = 0.008

MULES: Solving for alpha1
Liquid phase volume fraction = 0.00275429  Min(alpha1) = -5.65534e-30  Max(alpha1) = 1.00006
MULES: Solving for alpha1
Liquid phase volume fraction = 0.00275429  Min(alpha1) = -8.28539e-30  Max(alpha1) = 1.00006
[5] Building level 0
[4] Building level 0
[2] Building level 0
[1] Building level 0
[0] Building level 0
[3] Building level 0
[1] Building level 1
[4] Building level 1
[2] Building level 1
[0] Building level 1
Reconstruction on level 1
[3] Building level 1
[5] Building level 1
[4] Building level 2
[2] Building level 2
[3] Building level 2
[2] Building level 3
[3] Building level 3
[2] Building level 4
[3] Building level 4
[4] Building level 3
[2] Building level 5
[3] Building level 5
Creating AMGLevel 
[0] Building level 2
Reconstruction on level 2
[1] Building level 2
[5] Building level 2
[4] Building level 4
[2] Building level 6
[3] Building level 6
[2] Building level 7
[3] Building level 7
[2] Building level 8
[3] Building level 8
[2] Building level 9
[3] Building level 9
[2] Building level 10
[2] Building level 11
[3] Building level 10
[2] Building level 12
[3] Building level 11
[2] Building level 13
[4] Building level 5
[2] Building level 14
[3] Building level 12
[3] Building level 13
[3] Building level 14
Creating AMGLevel 
[0] Building level 3
Reconstruction on level 3
[1] Building level 3
[4] Building level 6
[5] Building level 3
[4] Building level 7
[4] Building level 8
[4] Building level 9
[4] Building level 10
[4] Building level 11
[4] Building level 12
[4] Building level 13
[4] Building level 14
Creating AMGLevel 
[0] Building level 4
Reconstruction on level 4
[1] Building level 4
[5] Building level 4
Creating AMGLevel 
[0] Building level 5
Reconstruction on level 5
[1] Building level 5
[5] Building level 5
Creating AMGLevel 
[0] Building level 6
Reconstruction on level 6
[1] Building level 6
[5] Building level 6
Creating AMGLevel 
[0] Building level 7
Reconstruction on level 7
[1] Building level 7
Creating AMGLevel 
[5] Building level 7
[0] Building level 8
Reconstruction on level 8
[1] Building level 8
Creating AMGLevel 
[0] Building level 9
Reconstruction on level 9
[1] Building level 9
Creating AMGLevel 
[0] Building level 10
Reconstruction on level 10
[5] Building level 8
Creating AMGLevel 
[0] Building level 11
Reconstruction on level 11
[1] Building level 10
Creating AMGLevel 
[0] Building level 12
Reconstruction on level 12
Creating AMGLevel 
[0] Building level 13
Reconstruction on level 13
[1] Building level 11
Creating AMGLevel 
[0] Building level 14
Reconstruction on level 14
[5] Building level 9
Creating AMGLevel 
14 Level construction complete
[1] Building level 12
[1] Building level 13
[1] Building level 14
[5] Building level 10
[5] Building level 11
[5] Building level 12
[5] Building level 13
[5] Building level 14
GPU: 19 iters: 4.37091 s: 1.89657 GB/s
PCGAMG:  Solving for pd, Initial residual = 0.119594, Final residual = 0.00438405, No Iterations 19
[3] Building level 0
[4] Building level 0
[0] Building level 0
[1] Building level 0
[2] Building level 0
[5] Building level 0
[4] Building level 1
[0] Building level 1
[1] Building level 1
[2] Building level 1
[5] Building level 1
[3] Building level 1
[4] Building level 2
[1] Building level 2
[0] Building level 2
[2] Building level 2
[3] Building level 2
[5] Building level 2
[4] Building level 3
[1] Building level 3
[2] Building level 3
[0] Building level 3
[3] Building level 3
[5] Building level 3
[4] Building level 4
[0] Building level 4
[1] Building level 4
[3] Building level 4
[2] Building level 4
[5] Building level 4
[4] Building level 5
[0] Building level 5
[1] Building level 5
[2] Building level 5
[3] Building level 5
[4] Building level 6
[1] Building level 6
[0] Building level 6
[5] Building level 5
[2] Building level 6
[3] Building level 6
[4] Building level 7
[0] Building level 7
[1] Building level 7
[4] Building level 8
[4] Building level 9
[2] Building level 7
[3] Building level 7
[0] Building level 8
[4] Building level 10
[1] Building level 8
[4] Building level 11
[4] Building level 12
[4] Building level 13
[4] Building level 14
[0] Building level 9
[1] Building level 9
[0] Building level 10
[2] Building level 8
[3] Building level 8
[0] Building level 11
[1] Building level 10
[0] Building level 12
[0] Building level 13
[5] Building level 6
[0] Building level 14
14 Level construction complete
[1] Building level 11
[1] Building level 12
[1] Building level 13
[1] Building level 14
[2] Building level 9
[3] Building level 9
[2] Building level 10
[3] Building level 10
[2] Building level 11
[2] Building level 12
[3] Building level 11
[2] Building level 13
[2] Building level 14
[3] Building level 12
[3] Building level 13
[3] Building level 14
[5] Building level 7
[5] Building level 8
[5] Building level 9
[5] Building level 10
[5] Building level 11
[5] Building level 12
[5] Building level 13
[5] Building level 14
GPU: 47 iters: 10.5066 s: 1.95175 GB/s
PCGAMG:  Solving for pd, Initial residual = 0.0301126, Final residual = 0.00148518, No Iterations 47
[2] Building level 0
[1] Building level 0
[3] Building level 0
[5] Building level 0
[0] Building level 0
[4] Building level 0
[0] Building level 1
[4] Building level 1
[2] Building level 1
[1] Building level 1
[5] Building level 1
[3] Building level 1
[4] Building level 2
[0] Building level 2
[2] Building level 2
[1] Building level 2
[5] Building level 2
[3] Building level 2
[4] Building level 3
[0] Building level 3
[2] Building level 3
[1] Building level 3
[3] Building level 3
[5] Building level 3
[0] Building level 4
[1] Building level 4
[4] Building level 4
[2] Building level 4
[3] Building level 4
[5] Building level 4
[0] Building level 5
[1] Building level 5
[4] Building level 5
[2] Building level 5
[3] Building level 5
[0] Building level 6
[5] Building level 5
[1] Building level 6
[2] Building level 6
[4] Building level 6
[0] Building level 7
[3] Building level 6
[0] Building level 8
[1] Building level 7
[0] Building level 9
[0] Building level 10
[2] Building level 7
[4] Building level 7
[0] Building level 11
[5] Building level 6
[0] Building level 12
[0] Building level 13
[0] Building level 14
14 Level construction complete
[1] Building level 8
[3] Building level 7
[2] Building level 8
[1] Building level 9
[4] Building level 8
[1] Building level 10
[1] Building level 11
[2] Building level 9
[1] Building level 12
[3] Building level 8
[1] Building level 13
[4] Building level 9
[1] Building level 14
[2] Building level 10
[2] Building level 11
[4] Building level 10
[2] Building level 12
[2] Building level 13
[4] Building level 11
[2] Building level 14
[3] Building level 9
[5] Building level 7
[4] Building level 12
[4] Building level 13
[4] Building level 14
[3] Building level 10
[3] Building level 11
[3] Building level 12
[3] Building level 13
[3] Building level 14
[5] Building level 8
[5] Building level 9
[5] Building level 10
[5] Building level 11
[5] Building level 12
[5] Building level 13
[5] Building level 14
GPU: 50 iters: 11.1614 s: 1.9545 GB/s
PCGAMG:  Solving for pd, Initial residual = 0.0317941, Final residual = 0.000114243, No Iterations 50
time step continuity errors : sum local = 6.01813e-09, global = 1.37533e-10, cumulative = -7.28128e-08
ExecutionTime = 516.32 s  ClockTime = 544 s

Courant Number mean: 3.94987e-05 max: 0.0178205 velocity magnitude: 0.278445
Time = 0.009

MULES: Solving for alpha1
Liquid phase volume fraction = 0.00275429  Min(alpha1) = -1.45699e-29  Max(alpha1) = 1.00006
MULES: Solving for alpha1
Liquid phase volume fraction = 0.00275429  Min(alpha1) = -2.99191e-29  Max(alpha1) = 1.00006
[3] Building level 0
[1] Building level 0
[4] Building level 0
[0] Building level 0
[2] Building level 0
[5] Building level 0
[2] Building level 1
[4] Building level 1
[0] Building level 1
Reconstruction on level 1
[1] Building level 1
[3] Building level 1
[5] Building level 1
[2] Building level 2
[3] Building level 2
[2] Building level 3
[3] Building level 3
[2] Building level 4
[3] Building level 4
[2] Building level 5
[3] Building level 5
Creating AMGLevel 
[0] Building level 2
Reconstruction on level 2
[1] Building level 2
[5] Building level 2
[4] Building level 2
[2] Building level 6
[3] Building level 6
[2] Building level 7
[3] Building level 7
[2] Building level 8
[3] Building level 8
[2] Building level 9
[3] Building level 9
[2] Building level 10
[3] Building level 10
[2] Building level 11
[2] Building level 12
[3] Building level 11
[2] Building level 13
[3] Building level 12
[2] Building level 14
[3] Building level 13
[3] Building level 14
Creating AMGLevel 
[1] Building level 3
[0] Building level 3
Reconstruction on level 3
[5] Building level 3
[4] Building level 3
Creating AMGLevel 
[1] Building level 4
[0] Building level 4
Reconstruction on level 4
[5] Building level 4
[4] Building level 4
Creating AMGLevel 
[1] Building level 5
[0] Building level 5
Reconstruction on level 5
[5] Building level 5
[4] Building level 5
[1] Building level 6
Creating AMGLevel 
[0] Building level 6
Reconstruction on level 6
[5] Building level 6
[4] Building level 6
[1] Building level 7
Creating AMGLevel 
[0] Building level 7
Reconstruction on level 7
[4] Building level 7
[5] Building level 7
[1] Building level 8
Creating AMGLevel 
[0] Building level 8
Reconstruction on level 8
[4] Building level 8
[5] Building level 8
[1] Building level 9
Creating AMGLevel 
[0] Building level 9
Reconstruction on level 9
[4] Building level 9
[1] Building level 10
[5] Building level 9
Creating AMGLevel 
[0] Building level 10
Reconstruction on level 10
[1] Building level 11
Creating AMGLevel 
[0] Building level 11
Reconstruction on level 11
[4] Building level 10
[1] Building level 12
[5] Building level 10
Creating AMGLevel 
[0] Building level 12
Reconstruction on level 12
[1] Building level 13
Creating AMGLevel 
[0] Building level 13
Reconstruction on level 13
[4] Building level 11
[1] Building level 14
[5] Building level 11
Creating AMGLevel 
[0] Building level 14
Reconstruction on level 14
[4] Building level 12
Creating AMGLevel 
14 Level construction complete
[5] Building level 12
[4] Building level 13
[5] Building level 13
[4] Building level 14
[5] Building level 14
GPU: 12 iters: 2.83514 s: 1.84669 GB/s
PCGAMG:  Solving for pd, Initial residual = 0.119449, Final residual = 0.00549743, No Iterations 12
[4] Building level 0
[1] Building level 0
[3] Building level 0
[2] Building level 0
[0] Building level 0
[5] Building level 0
[1] Building level 1
[0] Building level 1
[2] Building level 1
[4] Building level 1
[5] Building level 1
[3] Building level 1
[1] Building level 2
[0] Building level 2
[2] Building level 2
[4] Building level 2
[3] Building level 2
[5] Building level 2
[1] Building level 3
[0] Building level 3
[2] Building level 3
[4] Building level 3
[3] Building level 3
[5] Building level 3
[1] Building level 4
[2] Building level 4
[3] Building level 4
[0] Building level 4
[4] Building level 4
[1] Building level 5
[5] Building level 4
[2] Building level 5
[3] Building level 5
[0] Building level 5
[1] Building level 6
[4] Building level 5
[1] Building level 7
[2] Building level 6
[3] Building level 6
[5] Building level 5
[1] Building level 8
[0] Building level 6
[1] Building level 9
[1] Building level 10
[1] Building level 11
[1] Building level 12
[1] Building level 13
[1] Building level 14
[2] Building level 7
[3] Building level 7
[4] Building level 6
[0] Building level 7
[2] Building level 8
[3] Building level 8
[2] Building level 9
[3] Building level 9
[2] Building level 10
[0] Building level 8
[2] Building level 11
[3] Building level 10
[2] Building level 12
[2] Building level 13
[4] Building level 7
[2] Building level 14
[3] Building level 11
[3] Building level 12
[3] Building level 13
[3] Building level 14
[0] Building level 9
[5] Building level 6
[0] Building level 10
[0] Building level 11
[0] Building level 12
[0] Building level 13
[0] Building level 14
14 Level construction complete
[4] Building level 8
[4] Building level 9
[4] Building level 10
[4] Building level 11
[4] Building level 12
[4] Building level 13
[4] Building level 14
[5] Building level 7
[5] Building level 8
[5] Building level 9
[5] Building level 10
[5] Building level 11
[5] Building level 12
[5] Building level 13
[5] Building level 14
GPU: 6 iters: 1.52113 s: 1.72096 GB/s
PCGAMG:  Solving for pd, Initial residual = 0.0299525, Final residual = 0.000940118, No Iterations 6
[0] Building level 0
[2] Building level 0
[3] Building level 0
[5] Building level 0
[4] Building level 0
[1] Building level 0
[4] Building level 1
[0] Building level 1
[2] Building level 1
[1] Building level 1
[5] Building level 1
[3] Building level 1
[0] Building level 2
[1] Building level 2
[4] Building level 2
[2] Building level 2
[5] Building level 2
[3] Building level 2
[1] Building level 3
[0] Building level 3
[2] Building level 3
[4] Building level 3
[3] Building level 3
[5] Building level 3
[1] Building level 4
[2] Building level 4
[0] Building level 4
[3] Building level 4
[4] Building level 4
[5] Building level 4
[1] Building level 5
[2] Building level 5
[3] Building level 5
[0] Building level 5
[1] Building level 6
[4] Building level 5
[5] Building level 5
[2] Building level 6
[1] Building level 7
[3] Building level 6
[0] Building level 6
[1] Building level 8
[1] Building level 9
[1] Building level 10
[2] Building level 7
[1] Building level 11
[1] Building level 12
[1] Building level 13
[1] Building level 14
[4] Building level 6
[0] Building level 7
[3] Building level 7
[2] Building level 8
[0] Building level 8
[5] Building level 6
[3] Building level 8
[2] Building level 9
[2] Building level 10
[0] Building level 9
[2] Building level 11
[3] Building level 9
[2] Building level 12
[2] Building level 13
[2] Building level 14
[0] Building level 10
[4] Building level 7
[3] Building level 10
[0] Building level 11
[3] Building level 11
[0] Building level 12
[0] Building level 13
[0] Building level 14
[3] Building level 12
14 Level construction complete
[3] Building level 13
[3] Building level 14
[4] Building level 8
[5] Building level 7
[4] Building level 9
[4] Building level 10
[5] Building level 8
[4] Building level 11
[4] Building level 12
[4] Building level 13
[4] Building level 14
[5] Building level 9
[5] Building level 10
[5] Building level 11
[5] Building level 12
[5] Building level 13
[5] Building level 14
GPU: 50 iters: 11.1132 s: 1.96299 GB/s
PCGAMG:  Solving for pd, Initial residual = 0.0319185, Final residual = 8.00618e-05, No Iterations 50
time step continuity errors : sum local = 4.13757e-09, global = 1.21246e-12, cumulative = -7.28116e-08
ExecutionTime = 568.17 s  ClockTime = 597 s

Courant Number mean: 4.46211e-05 max: 0.0318079 velocity magnitude: 0.250025
Time = 0.01

MULES: Solving for alpha1
Liquid phase volume fraction = 0.00275429  Min(alpha1) = -3.16073e-29  Max(alpha1) = 1.00006
MULES: Solving for alpha1
Liquid phase volume fraction = 0.00275429  Min(alpha1) = -4.05912e-29  Max(alpha1) = 1.00006
[0] Building level 0
[2] Building level 0
[5] Building level 0
[3] Building level 0
[4] Building level 0
[1] Building level 0
[1] Building level 1
[2] Building level 1
[4] Building level 1
[0] Building level 1
Reconstruction on level 1
[3] Building level 1
[5] Building level 1
[2] Building level 2
[3] Building level 2
[2] Building level 3
[3] Building level 3
[2] Building level 4
[3] Building level 4
[2] Building level 5
[3] Building level 5
[4] Building level 2
Creating AMGLevel 
[0] Building level 2
Reconstruction on level 2
[1] Building level 2
[5] Building level 2
[2] Building level 6
[3] Building level 6
[2] Building level 7
[3] Building level 7
[2] Building level 8
[3] Building level 8
[2] Building level 9
[3] Building level 9
[2] Building level 10
[3] Building level 10
[2] Building level 11
[3] Building level 11
[2] Building level 12
[3] Building level 12
[2] Building level 13
[3] Building level 13
[2] Building level 14
[3] Building level 14
[4] Building level 3
[1] Building level 3
Creating AMGLevel 
[0] Building level 3
Reconstruction on level 3
[5] Building level 3
[4] Building level 4
[1] Building level 4
Creating AMGLevel 
[0] Building level 4
Reconstruction on level 4
[5] Building level 4
[4] Building level 5
[1] Building level 5
Creating AMGLevel 
[0] Building level 5
Reconstruction on level 5
[5] Building level 5
[4] Building level 6
[1] Building level 6
Creating AMGLevel 
[0] Building level 6
Reconstruction on level 6
[5] Building level 6
[4] Building level 7
[1] Building level 7
[4] Building level 8
Creating AMGLevel 
[0] Building level 7
Reconstruction on level 7
[5] Building level 7
[4] Building level 9
[1] Building level 8
[4] Building level 10
Creating AMGLevel 
[0] Building level 8
Reconstruction on level 8
[4] Building level 11
[4] Building level 12
[4] Building level 13
[1] Building level 9
[4] Building level 14
[5] Building level 8
Creating AMGLevel 
[0] Building level 9
Reconstruction on level 9
[1] Building level 10
[1] Building level 11
Creating AMGLevel 
[1] Building level 12
[0] Building level 10
Reconstruction on level 10
[1] Building level 13
[5] Building level 9
Creating AMGLevel 
[0] Building level 11
Reconstruction on level 11
[1] Building level 14
Creating AMGLevel 
[0] Building level 12
Reconstruction on level 12
Creating AMGLevel 
[0] Building level 13
Reconstruction on level 13
[5] Building level 10
Creating AMGLevel 
[0] Building level 14
Reconstruction on level 14
Creating AMGLevel 
14 Level construction complete
[5] Building level 11
[5] Building level 12
[5] Building level 13
[5] Building level 14
GPU: 19 iters: 4.16158 s: 1.99196 GB/s
PCGAMG:  Solving for pd, Initial residual = 0.120073, Final residual = 0.00434727, No Iterations 19
[1] Building level 0
[0] Building level 0
[2] Building level 0
[5] Building level 0
[4] Building level 0
[3] Building level 0
[0] Building level 1
[2] Building level 1
[4] Building level 1
[1] Building level 1
[5] Building level 1
[3] Building level 1
[1] Building level 2
[0] Building level 2
[4] Building level 2
[2] Building level 2
[5] Building level 2
[3] Building level 2
[0] Building level 3
[2] Building level 3
[4] Building level 3
[1] Building level 3
[3] Building level 3
[5] Building level 3
[0] Building level 4
[2] Building level 4
[1] Building level 4
[3] Building level 4
[4] Building level 4
[5] Building level 4
[0] Building level 5
[2] Building level 5
[1] Building level 5
[3] Building level 5
[4] Building level 5
[0] Building level 6
[2] Building level 6
[1] Building level 6
[5] Building level 5
[3] Building level 6
[2] Building level 7
[0] Building level 7
[4] Building level 6
[1] Building level 7
[2] Building level 8
[0] Building level 8
[2] Building level 9
[0] Building level 9
[2] Building level 10
[1] Building level 8
[0] Building level 10
[3] Building level 7
[2] Building level 11
[2] Building level 12
[0] Building level 11
[2] Building level 13
[2] Building level 14
[0] Building level 12
[0] Building level 13
[0] Building level 14
14 Level construction complete
[4] Building level 7
[1] Building level 9
[1] Building level 10
[1] Building level 11
[1] Building level 12
[3] Building level 8
[1] Building level 13
[1] Building level 14
[5] Building level 6
[4] Building level 8
[3] Building level 9
[3] Building level 10
[3] Building level 11
[4] Building level 9
[3] Building level 12
[3] Building level 13
[3] Building level 14
[4] Building level 10
[4] Building level 11
[4] Building level 12
[4] Building level 13
[4] Building level 14
[5] Building level 7
[5] Building level 8
[5] Building level 9
[5] Building level 10
[5] Building level 11
[5] Building level 12
[5] Building level 13
[5] Building level 14
GPU: 16 iters: 3.53504 s: 1.97475 GB/s
PCGAMG:  Solving for pd, Initial residual = 0.0308786, Final residual = 0.00132081, No Iterations 16
[0] Building level 0
[1] Building level 0
[2] Building level 0
[3] Building level 0
[5] Building level 0
[4] Building level 0
[4] Building level 1
[0] Building level 1
[2] Building level 1
[1] Building level 1
[5] Building level 1
[3] Building level 1
[0] Building level 2
[1] Building level 2
[4] Building level 2
[2] Building level 2
[3] Building level 2
[5] Building level 2
[0] Building level 3
[1] Building level 3
[2] Building level 3
[4] Building level 3
[3] Building level 3
[5] Building level 3
[0] Building level 4
[1] Building level 4
[2] Building level 4
[3] Building level 4
[4] Building level 4
[0] Building level 5
[5] Building level 4
[1] Building level 5
[2] Building level 5
[3] Building level 5
[0] Building level 6
[4] Building level 5
[2] Building level 6
[1] Building level 6
[0] Building level 7
[5] Building level 5
[3] Building level 6
[0] Building level 8
[1] Building level 7
[2] Building level 7
[0] Building level 9
[0] Building level 10
[0] Building level 11
[0] Building level 12
[0] Building level 13
[0] Building level 14
14 Level construction complete
[1] Building level 8
[2] Building level 8
[4] Building level 6
[1] Building level 9
[2] Building level 9
[3] Building level 7
[1] Building level 10
[2] Building level 10
[1] Building level 11
[1] Building level 12
[1] Building level 13
[2] Building level 11
[1] Building level 14
[2] Building level 12
[2] Building level 13
[2] Building level 14
[3] Building level 8
[4] Building level 7
[3] Building level 9
[5] Building level 6
[3] Building level 10
[3] Building level 11
[3] Building level 12
[3] Building level 13
[3] Building level 14
[4] Building level 8
[4] Building level 9
[4] Building level 10
[4] Building level 11
[4] Building level 12
[4] Building level 13
[4] Building level 14
[5] Building level 7
[5] Building level 8
[5] Building level 9
[5] Building level 10
[5] Building level 11
[5] Building level 12
[5] Building level 13
[5] Building level 14
GPU: 50 iters: 10.6148 s: 2.05515 GB/s
PCGAMG:  Solving for pd, Initial residual = 0.0329873, Final residual = 0.000229572, No Iterations 50
time step continuity errors : sum local = 1.1868e-08, global = -3.91904e-11, cumulative = -7.28508e-08
ExecutionTime = 622.73 s  ClockTime = 653 s

End

Finalising parallel run
