 Data for JOB [431,1] offset 0

 ========================   JOB MAP   ========================

 Data for node: ivb106	Num slots: 2	Max slots: 0	Num procs: 2
 	Process OMPI jobid: [431,1] App: 0 Process rank: 0
 	Process OMPI jobid: [431,1] App: 0 Process rank: 1

 Data for node: ivb108	Num slots: 2	Max slots: 0	Num procs: 2
 	Process OMPI jobid: [431,1] App: 0 Process rank: 2
 	Process OMPI jobid: [431,1] App: 0 Process rank: 3

 =============================================================
[ivb106:35389] MCW rank 0 bound to socket 0[core 0[hwt 0]]: [B/././././././././.][./././././././././.]
[ivb106:35389] MCW rank 1 bound to socket 0[core 1[hwt 0]]: [./B/./././././././.][./././././././././.]
[ivb108:20513] MCW rank 3 bound to socket 0[core 1[hwt 0]]: [./B/./././././././.][./././././././././.]
[ivb108:20513] MCW rank 2 bound to socket 0[core 0[hwt 0]]: [B/././././././././.][./././././././././.]
1
0
0
1
/*---------------------------------------------------------------------------*\
| =========                 |                                                 |
| \\      /  F ield         | foam-extend: Open Source CFD                    |
|  \\    /   O peration     | Version:     3.1                                |
|   \\  /    A nd           | Web:         http://www.extend-project.de       |
|    \\/     M anipulation  |                                                 |
\*---------------------------------------------------------------------------*/
Build    : 3.1-e2da948002a2
Exec     : interFoam -parallel
Date     : May 21 2016
Time     : 12:40:34
Host     : ivb106
PID      : 35417
CtrlDict : /home-2/vplatonov/foam/foam-extend-3.1/etc/controlDict
Case     : /home/vplatonov/tests/rt12mln
nProcs   : 4
Slaves : 
3
(
ivb106.35418
ivb108.20537
ivb108.20536
)

Pstream initialized with:
    floatTransfer     : 0
    nProcsSimpleSum   : 0
    commsType         : blocking
SigFpe   : Enabling floating point exception trapping (FOAM_SIGFPE).

// * * * * * * * * * * * * * * * * * * * * * * * * * * * * * * * * * * * * * //
Create time

Create mesh for time = 0


Reading g
Reading field pd

Reading field alpha1

Reading field U

Reading/calculating face flux field phi

Reading transportProperties

Selecting incompressible transport model Newtonian
Selecting incompressible transport model Newtonian
Calculating field g.h

Selecting turbulence model type laminar
time step continuity errors : sum local = 0, global = 0, cumulative = 0
[1] Building level 0
Created persistent data with name pcorr
[0] Building level 0
[3] Building level 0
[2] Building level 0
Creating AMGLevel 
[1] Building level 1
[0] Building level 1
[3] Building level 1
[2] Building level 1
Creating AMGLevel 
[1] Building level 2
[0] Building level 2
[3] Building level 2
[2] Building level 2
[1] Building level 3
[2] Building level 3
[3] Building level 3
Creating AMGLevel 
[0] Building level 3
[1] Building level 4
[2] Building level 4
Creating AMGLevel 
[3] Building level 4
[0] Building level 4
[1] Building level 5
[2] Building level 5
Creating AMGLevel 
[0] Building level 5
[3] Building level 5
[1] Building level 6
[2] Building level 6
Creating AMGLevel 
[0] Building level 6
[3] Building level 6
[1] Building level 7
[2] Building level 7
Creating AMGLevel 
[0] Building level 7
[1] Building level 8
[3] Building level 7
[2] Building level 8
[1] Building level 9
Creating AMGLevel 
[0] Building level 8
[1] Building level 10
[2] Building level 9
[1] Building level 11
[3] Building level 8
[1] Building level 12
[2] Building level 10
[1] Building level 13
Creating AMGLevel 
[0] Building level 9
[1] Building level 14
[2] Building level 11
[3] Building level 9
Creating AMGLevel 
[0] Building level 10
[2] Building level 12
[2] Building level 13
[2] Building level 14
Creating AMGLevel 
[0] Building level 11
[3] Building level 10
Creating AMGLevel 
[0] Building level 12
Creating AMGLevel 
[0] Building level 13
Creating AMGLevel 
[0] Building level 14
[3] Building level 11
Creating AMGLevel 
14 Level construction complete
[3] Building level 12
[3] Building level 13
[3] Building level 14
PCGAMG:  Solving for pcorr, Initial residual = 0, Final residual = 0, No Iterations 0
time step continuity errors : sum local = 0, global = 0, cumulative = 0
Courant Number mean: 0 max: 0 velocity magnitude: 0

Starting time loop

Courant Number mean: 0 max: 0 velocity magnitude: 0
Time = 0.001

MULES: Solving for alpha1
Liquid phase volume fraction = 0.00275421  Min(alpha1) = 0  Max(alpha1) = 1
MULES: Solving for alpha1
Liquid phase volume fraction = 0.00275421  Min(alpha1) = 0  Max(alpha1) = 1
Created persistent data with name pd
[0] Building level 0
[1] Building level 0
[3] Building level 0
[2] Building level 0
Creating AMGLevel 
[0] Building level 1
[1] Building level 1
[3] Building level 1
[2] Building level 1
Creating AMGLevel 
[0] Building level 2
[1] Building level 2
[2] Building level 2
[3] Building level 2
Creating AMGLevel 
[0] Building level 3
[1] Building level 3
[3] Building level 3
[2] Building level 3
Creating AMGLevel 
[0] Building level 4
[2] Building level 4
[1] Building level 4
[3] Building level 4
Creating AMGLevel 
[0] Building level 5
[2] Building level 5
[1] Building level 5
[3] Building level 5
Creating AMGLevel 
[0] Building level 6
[1] Building level 6
[2] Building level 6
[3] Building level 6
Creating AMGLevel 
[0] Building level 7
[1] Building level 7
[2] Building level 7
Creating AMGLevel 
[0] Building level 8
[3] Building level 7
Creating AMGLevel 
[0] Building level 9
[1] Building level 8
[2] Building level 8
Creating AMGLevel 
[0] Building level 10
Creating AMGLevel 
[0] Building level 11
Creating AMGLevel 
[0] Building level 12
Creating AMGLevel 
[0] Building level 13
[1] Building level 9
[2] Building level 9
Creating AMGLevel 
[0] Building level 14
[3] Building level 8
Creating AMGLevel 
14 Level construction complete
[1] Building level 10
[2] Building level 10
[1] Building level 11
[2] Building level 11
[1] Building level 12
[3] Building level 9
[1] Building level 13
[2] Building level 12
[1] Building level 14
[2] Building level 13
[2] Building level 14
[3] Building level 10
[3] Building level 11
[3] Building level 12
[3] Building level 13
[3] Building level 14
GPU: 1 iters: 0.431663 s: 1.51609 GB/s
PCGAMG:  Solving for pd, Initial residual = 1, Final residual = 0.0347813, No Iterations 1
[0] Building level 0
[1] Building level 0
[2] Building level 0
[3] Building level 0
[0] Building level 1
[2] Building level 1
[1] Building level 1
[3] Building level 1
[2] Building level 2
[0] Building level 2
[1] Building level 2
[3] Building level 2
[2] Building level 3
[0] Building level 3
[1] Building level 3
[3] Building level 3
[2] Building level 4
[1] Building level 4
[0] Building level 4
[3] Building level 4
[2] Building level 5
[1] Building level 5
[0] Building level 5
[3] Building level 5
[2] Building level 6
[1] Building level 6
[0] Building level 6
[3] Building level 6
[2] Building level 7
[1] Building level 7
[2] Building level 8
[0] Building level 7
[2] Building level 9
[1] Building level 8
[2] Building level 10
[3] Building level 7
[2] Building level 11
[2] Building level 12
[2] Building level 13
[2] Building level 14
[1] Building level 9
[0] Building level 8
[1] Building level 10
[1] Building level 11
[1] Building level 12
[0] Building level 9
[1] Building level 13
[1] Building level 14
[3] Building level 8
[0] Building level 10
[0] Building level 11
[0] Building level 12
[0] Building level 13
[0] Building level 14
14 Level construction complete
[3] Building level 9
[3] Building level 10
[3] Building level 11
[3] Building level 12
[3] Building level 13
[3] Building level 14
GPU: 3 iters: 0.852958 s: 2.30177 GB/s
PCGAMG:  Solving for pd, Initial residual = 0.022278, Final residual = 0.00097955, No Iterations 3
[1] Building level 0
[0] Building level 0
[2] Building level 0
[3] Building level 0
[0] Building level 1
[2] Building level 1
[1] Building level 1
[3] Building level 1
[2] Building level 2
[0] Building level 2
[1] Building level 2
[3] Building level 2
[2] Building level 3
[0] Building level 3
[1] Building level 3
[3] Building level 3
[2] Building level 4
[1] Building level 4
[0] Building level 4
[3] Building level 4
[2] Building level 5
[1] Building level 5
[0] Building level 5
[3] Building level 5
[2] Building level 6
[1] Building level 6
[0] Building level 6
[3] Building level 6
[2] Building level 7
[1] Building level 7
[0] Building level 7
[2] Building level 8
[1] Building level 8
[2] Building level 9
[3] Building level 7
[2] Building level 10
[0] Building level 8
[2] Building level 11
[1] Building level 9
[2] Building level 12
[2] Building level 13
[2] Building level 14
[1] Building level 10
[1] Building level 11
[0] Building level 9
[1] Building level 12
[1] Building level 13
[1] Building level 14
[3] Building level 8
[0] Building level 10
[0] Building level 11
[0] Building level 12
[0] Building level 13
[0] Building level 14
14 Level construction complete
[3] Building level 9
[3] Building level 10
[3] Building level 11
[3] Building level 12
[3] Building level 13
[3] Building level 14
GPU: 17 iters: 3.82754 s: 2.90668 GB/s
PCGAMG:  Solving for pd, Initial residual = 0.00562861, Final residual = 9.71623e-08, No Iterations 17
time step continuity errors : sum local = 7.2233e-12, global = 2.46201e-24, cumulative = 2.46201e-24
ExecutionTime = 124.04 s  ClockTime = 132 s

Courant Number mean: 4.86856e-06 max: 0.00215808 velocity magnitude: 0.03372
Time = 0.002

MULES: Solving for alpha1
Liquid phase volume fraction = 0.00275421  Min(alpha1) = 0  Max(alpha1) = 1
MULES: Solving for alpha1
Liquid phase volume fraction = 0.00275421  Min(alpha1) = 0  Max(alpha1) = 1
[1] Building level 0
[0] Building level 0
[2] Building level 0
[3] Building level 0
[2] Building level 1
[3] Building level 1
[1] Building level 1
[0] Building level 1
Reconstruction on level 1
[3] Building level 2
Creating AMGLevel 
[2] Building level 2
[1] Building level 2
[0] Building level 2
Reconstruction on level 2
[3] Building level 3
Creating AMGLevel 
[2] Building level 3
[0] Building level 3
Reconstruction on level 3
[1] Building level 3
[1] Building level 4
Creating AMGLevel 
[0] Building level 4
Reconstruction on level 4
[2] Building level 4
[3] Building level 4
[1] Building level 5
Creating AMGLevel 
[0] Building level 5
Reconstruction on level 5
[2] Building level 5
[3] Building level 5
[1] Building level 6
Creating AMGLevel 
[0] Building level 6
Reconstruction on level 6
[2] Building level 6
[3] Building level 6
[1] Building level 7
Creating AMGLevel 
[0] Building level 7
Reconstruction on level 7
[1] Building level 8
[2] Building level 7
[3] Building level 7
[1] Building level 9
Creating AMGLevel 
[0] Building level 8
Reconstruction on level 8
[1] Building level 10
[1] Building level 11
Creating AMGLevel 
[0] Building level 9
Reconstruction on level 9
[1] Building level 12
[1] Building level 13
[2] Building level 8
[1] Building level 14
[3] Building level 8
Creating AMGLevel 
[0] Building level 10
Reconstruction on level 10
Creating AMGLevel 
[0] Building level 11
Reconstruction on level 11
Creating AMGLevel 
[0] Building level 12
Reconstruction on level 12
[2] Building level 9
Creating AMGLevel 
[0] Building level 13
Reconstruction on level 13
Creating AMGLevel 
[0] Building level 14
Reconstruction on level 14
[3] Building level 9
Creating AMGLevel 
14 Level construction complete
[2] Building level 10
[3] Building level 10
[2] Building level 11
[3] Building level 11
[2] Building level 12
[3] Building level 12
[2] Building level 13
[3] Building level 13
[2] Building level 14
[3] Building level 14
GPU: 3 iters: 0.823743 s: 2.3834 GB/s
PCGAMG:  Solving for pd, Initial residual = 0.00352134, Final residual = 0.000138195, No Iterations 3
[1] Building level 0
[0] Building level 0
[2] Building level 0
[3] Building level 0
[0] Building level 1
[1] Building level 1
[2] Building level 1
[3] Building level 1
[1] Building level 2
[3] Building level 2
[0] Building level 2
[2] Building level 2
[1] Building level 3
[0] Building level 3
[3] Building level 3
[2] Building level 3
[1] Building level 4
[0] Building level 4
[3] Building level 4
[2] Building level 4
[1] Building level 5
[0] Building level 5
[1] Building level 6
[3] Building level 5
[1] Building level 7
[2] Building level 5
[0] Building level 6
[1] Building level 8
[1] Building level 9
[1] Building level 10
[1] Building level 11
[1] Building level 12
[1] Building level 13
[1] Building level 14
[0] Building level 7
[3] Building level 6
[0] Building level 8
[2] Building level 6
[0] Building level 9
[0] Building level 10
[0] Building level 11
[0] Building level 12
[0] Building level 13
[0] Building level 14
14 Level construction complete
[3] Building level 7
[2] Building level 7
[3] Building level 8
[3] Building level 9
[2] Building level 8
[3] Building level 10
[3] Building level 11
[3] Building level 12
[3] Building level 13
[3] Building level 14
[2] Building level 9
[2] Building level 10
[2] Building level 11
[2] Building level 12
[2] Building level 13
[2] Building level 14
GPU: 4 iters: 1.02844 s: 2.54535 GB/s
PCGAMG:  Solving for pd, Initial residual = 0.00211264, Final residual = 0.000102518, No Iterations 4
[1] Building level 0
[0] Building level 0
[3] Building level 0
[2] Building level 0
[0] Building level 1
[1] Building level 1
[3] Building level 1
[2] Building level 1
[1] Building level 2
[0] Building level 2
[3] Building level 2
[2] Building level 2
[1] Building level 3
[0] Building level 3
[3] Building level 3
[2] Building level 3
[1] Building level 4
[0] Building level 4
[3] Building level 4
[2] Building level 4
[1] Building level 5
[0] Building level 5
[1] Building level 6
[3] Building level 5
[2] Building level 5
[0] Building level 6
[1] Building level 7
[1] Building level 8
[0] Building level 7
[1] Building level 9
[1] Building level 10
[1] Building level 11
[0] Building level 8
[1] Building level 12
[1] Building level 13
[1] Building level 14
[3] Building level 6
[0] Building level 9
[2] Building level 6
[0] Building level 10
[0] Building level 11
[0] Building level 12
[0] Building level 13
[0] Building level 14
14 Level construction complete
[3] Building level 7
[2] Building level 7
[3] Building level 8
[2] Building level 8
[3] Building level 9
[3] Building level 10
[2] Building level 9
[3] Building level 11
[3] Building level 12
[3] Building level 13
[2] Building level 10
[3] Building level 14
[2] Building level 11
[2] Building level 12
[2] Building level 13
[2] Building level 14
GPU: 28 iters: 5.99343 s: 3.05739 GB/s
PCGAMG:  Solving for pd, Initial residual = 0.00194652, Final residual = 8.70926e-08, No Iterations 28
time step continuity errors : sum local = 4.09026e-12, global = 1.15758e-24, cumulative = 3.61959e-24
ExecutionTime = 178.11 s  ClockTime = 187 s

Courant Number mean: 7.66799e-06 max: 0.00313193 velocity magnitude: 0.0489364
Time = 0.003

MULES: Solving for alpha1
Liquid phase volume fraction = 0.00275421  Min(alpha1) = -6.14917e-31  Max(alpha1) = 1
MULES: Solving for alpha1
Liquid phase volume fraction = 0.00275421  Min(alpha1) = -2.99767e-32  Max(alpha1) = 1
[1] Building level 0
[0] Building level 0
[2] Building level 0
[3] Building level 0
[0] Building level 1
[1] Building level 1
[2] Building level 1
[3] Building level 1
[1] Building level 2
[0] Building level 2
Reconstruction on level 2
[2] Building level 2
Creating AMGLevel 
[1] Building level 3
[0] Building level 3
Reconstruction on level 3
[2] Building level 3
[3] Building level 2
[1] Building level 4
Creating AMGLevel 
[0] Building level 4
Reconstruction on level 4
[2] Building level 4
[1] Building level 5
Creating AMGLevel 
[0] Building level 5
Reconstruction on level 5
[2] Building level 5
[1] Building level 6
[3] Building level 3
Creating AMGLevel 
[0] Building level 6
Reconstruction on level 6
[2] Building level 6
[1] Building level 7
Creating AMGLevel 
[0] Building level 7
Reconstruction on level 7
[1] Building level 8
Creating AMGLevel 
[0] Building level 8
Reconstruction on level 8
[1] Building level 9
[2] Building level 7
[1] Building level 10
[1] Building level 11
Creating AMGLevel 
[0] Building level 9
Reconstruction on level 9
[1] Building level 12
[1] Building level 13
[1] Building level 14
Creating AMGLevel 
[0] Building level 10
Reconstruction on level 10
[2] Building level 8
Creating AMGLevel 
[0] Building level 11
Reconstruction on level 11
Creating AMGLevel 
[0] Building level 12
Reconstruction on level 12
Creating AMGLevel 
[0] Building level 13
Reconstruction on level 13
Creating AMGLevel 
[0] Building level 14
Reconstruction on level 14
Creating AMGLevel 
14 Level construction complete
[2] Building level 9
[2] Building level 10
[2] Building level 11
[2] Building level 12
[2] Building level 13
[2] Building level 14
[3] Building level 4
[3] Building level 5
[3] Building level 6
[3] Building level 7
[3] Building level 8
[3] Building level 9
[3] Building level 10
[3] Building level 11
[3] Building level 12
[3] Building level 13
[3] Building level 14
GPU: 4 iters: 1.03526 s: 2.5286 GB/s
PCGAMG:  Solving for pd, Initial residual = 0.00425645, Final residual = 0.000169523, No Iterations 4
[1] Building level 0
[0] Building level 0
[3] Building level 0
[2] Building level 0
[0] Building level 1
[1] Building level 1
[3] Building level 1
[2] Building level 1
[1] Building level 2
[0] Building level 2
[3] Building level 2
[2] Building level 2
[1] Building level 3
[0] Building level 3
[2] Building level 3
[3] Building level 3
[1] Building level 4
[0] Building level 4
[3] Building level 4
[2] Building level 4
[1] Building level 5
[0] Building level 5
[1] Building level 6
[3] Building level 5
[2] Building level 5
[1] Building level 7
[0] Building level 6
[1] Building level 8
[1] Building level 9
[1] Building level 10
[1] Building level 11
[1] Building level 12
[1] Building level 13
[1] Building level 14
[3] Building level 6
[0] Building level 7
[2] Building level 6
[0] Building level 8
[0] Building level 9
[0] Building level 10
[3] Building level 7
[0] Building level 11
[0] Building level 12
[2] Building level 7
[0] Building level 13
[0] Building level 14
14 Level construction complete
[3] Building level 8
[2] Building level 8
[3] Building level 9
[2] Building level 9
[3] Building level 10
[3] Building level 11
[2] Building level 10
[3] Building level 12
[3] Building level 13
[3] Building level 14
[2] Building level 11
[2] Building level 12
[2] Building level 13
[2] Building level 14
GPU: 4 iters: 1.02425 s: 2.55577 GB/s
PCGAMG:  Solving for pd, Initial residual = 0.00305256, Final residual = 9.35271e-05, No Iterations 4
[0] Building level 0
[1] Building level 0
[3] Building level 0
[2] Building level 0
[1] Building level 1
[0] Building level 1
[2] Building level 1
[3] Building level 1
[1] Building level 2
[0] Building level 2
[2] Building level 2
[3] Building level 2
[1] Building level 3
[0] Building level 3
[3] Building level 3
[2] Building level 3
[1] Building level 4
[0] Building level 4
[2] Building level 4
[3] Building level 4
[1] Building level 5
[0] Building level 5
[1] Building level 6
[2] Building level 5
[3] Building level 5
[1] Building level 7
[0] Building level 6
[1] Building level 8
[1] Building level 9
[1] Building level 10
[1] Building level 11
[1] Building level 12
[1] Building level 13
[1] Building level 14
[0] Building level 7
[2] Building level 6
[3] Building level 6
[0] Building level 8
[0] Building level 9
[0] Building level 10
[3] Building level 7
[0] Building level 11
[2] Building level 7
[0] Building level 12
[0] Building level 13
[0] Building level 14
14 Level construction complete
[3] Building level 8
[2] Building level 8
[3] Building level 9
[2] Building level 9
[3] Building level 10
[2] Building level 10
[3] Building level 11
[3] Building level 12
[3] Building level 13
[3] Building level 14
[2] Building level 11
[2] Building level 12
[2] Building level 13
[2] Building level 14
GPU: 40 iters: 8.49441 s: 3.08173 GB/s
PCGAMG:  Solving for pd, Initial residual = 0.00259984, Final residual = 9.15263e-08, No Iterations 40
time step continuity errors : sum local = 4.29629e-12, global = -3.09228e-25, cumulative = 3.31036e-24
ExecutionTime = 234.78 s  ClockTime = 245 s

Courant Number mean: 1.35656e-05 max: 0.00482506 velocity magnitude: 0.0753915
Time = 0.004

MULES: Solving for alpha1
Liquid phase volume fraction = 0.00275421  Min(alpha1) = -1.69211e-31  Max(alpha1) = 1
MULES: Solving for alpha1
Liquid phase volume fraction = 0.00275421  Min(alpha1) = -2.15359e-31  Max(alpha1) = 1
[0] Building level 0
[1] Building level 0
[3] Building level 0
[2] Building level 0
[0] Building level 1
Reconstruction on level 1
[1] Building level 1
[3] Building level 1
[2] Building level 1
[1] Building level 2
[1] Building level 3
Creating AMGLevel 
[0] Building level 2
Reconstruction on level 2
[2] Building level 2
[3] Building level 2
[1] Building level 4
[1] Building level 5
Creating AMGLevel 
[0] Building level 3
Reconstruction on level 3
[2] Building level 3
[1] Building level 6
[3] Building level 3
[1] Building level 7
[1] Building level 8
[1] Building level 9
[1] Building level 10
[1] Building level 11
[1] Building level 12
[1] Building level 13
[1] Building level 14
Creating AMGLevel 
[0] Building level 4
Reconstruction on level 4
[3] Building level 4
[2] Building level 4
Creating AMGLevel 
[0] Building level 5
Reconstruction on level 5
[3] Building level 5
[2] Building level 5
Creating AMGLevel 
[0] Building level 6
Reconstruction on level 6
Creating AMGLevel 
[3] Building level 6
[0] Building level 7
Reconstruction on level 7
[2] Building level 6
Creating AMGLevel 
[0] Building level 8
Reconstruction on level 8
Creating AMGLevel 
[0] Building level 9
Reconstruction on level 9
[3] Building level 7
Creating AMGLevel 
[0] Building level 10
Reconstruction on level 10
[2] Building level 7
Creating AMGLevel 
[0] Building level 11
Reconstruction on level 11
Creating AMGLevel 
[0] Building level 12
Reconstruction on level 12
Creating AMGLevel 
[0] Building level 13
Reconstruction on level 13
Creating AMGLevel 
[0] Building level 14
Reconstruction on level 14
Creating AMGLevel 
14 Level construction complete
[3] Building level 8
[2] Building level 8
[3] Building level 9
[2] Building level 9
[3] Building level 10
[2] Building level 10
[3] Building level 11
[3] Building level 12
[2] Building level 11
[3] Building level 13
[2] Building level 12
[3] Building level 14
[2] Building level 13
[2] Building level 14
GPU: 4 iters: 1.01519 s: 2.57857 GB/s
PCGAMG:  Solving for pd, Initial residual = 0.00343457, Final residual = 0.000100929, No Iterations 4
[0] Building level 0
[1] Building level 0
[2] Building level 0
[3] Building level 0
[1] Building level 1
[0] Building level 1
[2] Building level 1
[3] Building level 1
[0] Building level 2
[1] Building level 2
[2] Building level 2
[3] Building level 2
[1] Building level 3
[0] Building level 3
[3] Building level 3
[2] Building level 3
[1] Building level 4
[0] Building level 4
[3] Building level 4
[2] Building level 4
[1] Building level 5
[0] Building level 5
[1] Building level 6
[3] Building level 5
[2] Building level 5
[1] Building level 7
[0] Building level 6
[1] Building level 8
[1] Building level 9
[1] Building level 10
[1] Building level 11
[1] Building level 12
[1] Building level 13
[1] Building level 14
[0] Building level 7
[3] Building level 6
[2] Building level 6
[0] Building level 8
[0] Building level 9
[0] Building level 10
[0] Building level 11
[0] Building level 12
[0] Building level 13
[0] Building level 14
14 Level construction complete
[3] Building level 7
[2] Building level 7
[2] Building level 8
[3] Building level 8
[2] Building level 9
[3] Building level 9
[2] Building level 10
[3] Building level 10
[2] Building level 11
[3] Building level 11
[2] Building level 12
[3] Building level 12
[2] Building level 13
[2] Building level 14
[3] Building level 13
[3] Building level 14
GPU: 4 iters: 1.00957 s: 2.59293 GB/s
PCGAMG:  Solving for pd, Initial residual = 0.00316963, Final residual = 0.000155122, No Iterations 4
[0] Building level 0
[1] Building level 0
[2] Building level 0
[3] Building level 0
[0] Building level 1
[1] Building level 1
[2] Building level 1
[3] Building level 1
[1] Building level 2
[0] Building level 2
[2] Building level 2
[3] Building level 2
[1] Building level 3
[0] Building level 3
[3] Building level 3
[2] Building level 3
[1] Building level 4
[0] Building level 4
[3] Building level 4
[2] Building level 4
[1] Building level 5
[0] Building level 5
[1] Building level 6
[3] Building level 5
[2] Building level 5
[1] Building level 7
[0] Building level 6
[1] Building level 8
[1] Building level 9
[1] Building level 10
[1] Building level 11
[1] Building level 12
[1] Building level 13
[1] Building level 14
[0] Building level 7
[3] Building level 6
[2] Building level 6
[0] Building level 8
[0] Building level 9
[0] Building level 10
[0] Building level 11
[0] Building level 12
[0] Building level 13
[0] Building level 14
14 Level construction complete
[2] Building level 7
[3] Building level 7
[2] Building level 8
[3] Building level 8
[2] Building level 9
[3] Building level 9
[2] Building level 10
[3] Building level 10
[2] Building level 11
[3] Building level 11
[2] Building level 12
[2] Building level 13
[3] Building level 12
[2] Building level 14
[3] Building level 13
[3] Building level 14
GPU: 50 iters: 10.3254 s: 3.16906 GB/s
PCGAMG:  Solving for pd, Initial residual = 0.00245292, Final residual = 1.02583e-06, No Iterations 50
time step continuity errors : sum local = 4.79061e-11, global = 3.87262e-24, cumulative = 7.18298e-24
ExecutionTime = 293.04 s  ClockTime = 304 s

Courant Number mean: 1.92421e-05 max: 0.00597577 velocity magnitude: 0.0933714
Time = 0.005

MULES: Solving for alpha1
Liquid phase volume fraction = 0.00275421  Min(alpha1) = -2.88706e-29  Max(alpha1) = 1
MULES: Solving for alpha1
Liquid phase volume fraction = 0.00275421  Min(alpha1) = -9.57677e-31  Max(alpha1) = 1
[1] Building level 0
[0] Building level 0
[2] Building level 0
[3] Building level 0
[0] Building level 1
Reconstruction on level 1
[1] Building level 1
[2] Building level 1
[3] Building level 1
[1] Building level 2
[2] Building level 2
[1] Building level 3
[2] Building level 3
Creating AMGLevel 
[0] Building level 2
Reconstruction on level 2
[3] Building level 2
[1] Building level 4
[2] Building level 4
[1] Building level 5
[2] Building level 5
Creating AMGLevel 
[0] Building level 3
Reconstruction on level 3
[3] Building level 3
[1] Building level 6
[2] Building level 6
[1] Building level 7
[1] Building level 8
[2] Building level 7
[1] Building level 9
[1] Building level 10
[1] Building level 11
[2] Building level 8
[1] Building level 12
[1] Building level 13
[1] Building level 14
[2] Building level 9
[2] Building level 10
[2] Building level 11
[2] Building level 12
[2] Building level 13
[2] Building level 14
Creating AMGLevel 
[0] Building level 4
Reconstruction on level 4
[3] Building level 4
Creating AMGLevel 
[0] Building level 5
Reconstruction on level 5
[3] Building level 5
Creating AMGLevel 
[0] Building level 6
Reconstruction on level 6
Creating AMGLevel 
[0] Building level 7
Reconstruction on level 7
[3] Building level 6
Creating AMGLevel 
[0] Building level 8
Reconstruction on level 8
Creating AMGLevel 
[0] Building level 9
Reconstruction on level 9
Creating AMGLevel 
[0] Building level 10
Reconstruction on level 10
Creating AMGLevel 
[0] Building level 11
Reconstruction on level 11
Creating AMGLevel 
[0] Building level 12
Reconstruction on level 12
[3] Building level 7
Creating AMGLevel 
[0] Building level 13
Reconstruction on level 13
Creating AMGLevel 
[0] Building level 14
Reconstruction on level 14
Creating AMGLevel 
14 Level construction complete
[3] Building level 8
[3] Building level 9
[3] Building level 10
[3] Building level 11
[3] Building level 12
[3] Building level 13
[3] Building level 14
GPU: 4 iters: 1.02964 s: 2.5424 GB/s
PCGAMG:  Solving for pd, Initial residual = 0.00216963, Final residual = 9.58437e-05, No Iterations 4
[0] Building level 0
[1] Building level 0
[2] Building level 0
[3] Building level 0
[0] Building level 1
[1] Building level 1
[2] Building level 1
[3] Building level 1
[1] Building level 2
[0] Building level 2
[3] Building level 2
[2] Building level 2
[1] Building level 3
[0] Building level 3
[2] Building level 3
[3] Building level 3
[1] Building level 4
[0] Building level 4
[2] Building level 4
[3] Building level 4
[1] Building level 5
[0] Building level 5
[1] Building level 6
[2] Building level 5
[3] Building level 5
[1] Building level 7
[0] Building level 6
[1] Building level 8
[1] Building level 9
[1] Building level 10
[1] Building level 11
[1] Building level 12
[1] Building level 13
[0] Building level 7
[1] Building level 14
[2] Building level 6
[3] Building level 6
[0] Building level 8
[0] Building level 9
[0] Building level 10
[0] Building level 11
[0] Building level 12
[0] Building level 13
[0] Building level 14
14 Level construction complete
[2] Building level 7
[3] Building level 7
[2] Building level 8
[3] Building level 8
[2] Building level 9
[3] Building level 9
[2] Building level 10
[2] Building level 11
[2] Building level 12
[3] Building level 10
[2] Building level 13
[2] Building level 14
[3] Building level 11
[3] Building level 12
[3] Building level 13
[3] Building level 14
GPU: 4 iters: 1.01178 s: 2.58726 GB/s
PCGAMG:  Solving for pd, Initial residual = 0.00179852, Final residual = 7.49076e-05, No Iterations 4
[1] Building level 0
[0] Building level 0
[2] Building level 0
[3] Building level 0
[0] Building level 1
[1] Building level 1
[2] Building level 1
[3] Building level 1
[1] Building level 2
[0] Building level 2
[3] Building level 2
[2] Building level 2
[1] Building level 3
[0] Building level 3
[3] Building level 3
[2] Building level 3
[1] Building level 4
[0] Building level 4
[2] Building level 4
[3] Building level 4
[1] Building level 5
[0] Building level 5
[1] Building level 6
[2] Building level 5
[3] Building level 5
[1] Building level 7
[0] Building level 6
[1] Building level 8
[1] Building level 9
[1] Building level 10
[1] Building level 11
[1] Building level 12
[1] Building level 13
[0] Building level 7
[1] Building level 14
[2] Building level 6
[3] Building level 6
[0] Building level 8
[0] Building level 9
[0] Building level 10
[0] Building level 11
[0] Building level 12
[0] Building level 13
[0] Building level 14
14 Level construction complete
[2] Building level 7
[3] Building level 7
[2] Building level 8
[3] Building level 8
[2] Building level 9
[3] Building level 9
[2] Building level 10
[2] Building level 11
[2] Building level 12
[3] Building level 10
[2] Building level 13
[2] Building level 14
[3] Building level 11
[3] Building level 12
[3] Building level 13
[3] Building level 14
GPU: 50 iters: 10.419 s: 3.14061 GB/s
PCGAMG:  Solving for pd, Initial residual = 0.00145444, Final residual = 1.20807e-06, No Iterations 50
time step continuity errors : sum local = 5.63191e-11, global = -8.18874e-25, cumulative = 6.36411e-24
ExecutionTime = 351.93 s  ClockTime = 364 s

Courant Number mean: 2.43819e-05 max: 0.00683536 velocity magnitude: 0.106802
Time = 0.006

MULES: Solving for alpha1
Liquid phase volume fraction = 0.00275421  Min(alpha1) = -9.32828e-31  Max(alpha1) = 1
MULES: Solving for alpha1
Liquid phase volume fraction = 0.00275421  Min(alpha1) = -9.24546e-31  Max(alpha1) = 1
[1] Building level 0
[0] Building level 0
[2] Building level 0
[3] Building level 0
[0] Building level 1
[1] Building level 1
[3] Building level 1
[2] Building level 1
[1] Building level 2
[0] Building level 2
Reconstruction on level 2
Creating AMGLevel 
[0] Building level 3
Reconstruction on level 3
[1] Building level 3
[2] Building level 2
[3] Building level 2
Creating AMGLevel 
[0] Building level 4
Reconstruction on level 4
[1] Building level 4
Creating AMGLevel 
[0] Building level 5
Reconstruction on level 5
[1] Building level 5
Creating AMGLevel 
[0] Building level 6
Reconstruction on level 6
[3] Building level 3
[2] Building level 3
[1] Building level 6
Creating AMGLevel 
[0] Building level 7
Reconstruction on level 7
[1] Building level 7
Creating AMGLevel 
[0] Building level 8
Reconstruction on level 8
[1] Building level 8
Creating AMGLevel 
[0] Building level 9
Reconstruction on level 9
[1] Building level 9
Creating AMGLevel 
[0] Building level 10
Reconstruction on level 10
Creating AMGLevel 
[0] Building level 11
Reconstruction on level 11
[1] Building level 10
Creating AMGLevel 
[0] Building level 12
Reconstruction on level 12
Creating AMGLevel 
[0] Building level 13
Reconstruction on level 13
Creating AMGLevel 
[0] Building level 14
Reconstruction on level 14
[1] Building level 11
Creating AMGLevel 
14 Level construction complete
[1] Building level 12
[1] Building level 13
[1] Building level 14
[3] Building level 4
[2] Building level 4
[3] Building level 5
[2] Building level 5
[2] Building level 6
[3] Building level 6
[2] Building level 7
[3] Building level 7
[2] Building level 8
[3] Building level 8
[2] Building level 9
[3] Building level 9
[2] Building level 10
[3] Building level 10
[2] Building level 11
[2] Building level 12
[3] Building level 11
[2] Building level 13
[3] Building level 12
[2] Building level 14
[3] Building level 13
[3] Building level 14
GPU: 4 iters: 1.01552 s: 2.57774 GB/s
PCGAMG:  Solving for pd, Initial residual = 0.00228026, Final residual = 0.000109353, No Iterations 4
[0] Building level 0
[1] Building level 0
[2] Building level 0
[3] Building level 0
[0] Building level 1
[1] Building level 1
[2] Building level 1
[3] Building level 1
[1] Building level 2
[2] Building level 2
[0] Building level 2
[3] Building level 2
[1] Building level 3
[2] Building level 3
[0] Building level 3
[3] Building level 3
[1] Building level 4
[2] Building level 4
[0] Building level 4
[3] Building level 4
[1] Building level 5
[2] Building level 5
[0] Building level 5
[1] Building level 6
[3] Building level 5
[1] Building level 7
[2] Building level 6
[1] Building level 8
[1] Building level 9
[0] Building level 6
[1] Building level 10
[1] Building level 11
[1] Building level 12
[1] Building level 13
[1] Building level 14
[3] Building level 6
[2] Building level 7
[0] Building level 7
[2] Building level 8
[2] Building level 9
[2] Building level 10
[3] Building level 7
[0] Building level 8
[2] Building level 11
[2] Building level 12
[2] Building level 13
[2] Building level 14
[0] Building level 9
[0] Building level 10
[0] Building level 11
[3] Building level 8
[0] Building level 12
[0] Building level 13
[0] Building level 14
14 Level construction complete
[3] Building level 9
[3] Building level 10
[3] Building level 11
[3] Building level 12
[3] Building level 13
[3] Building level 14
GPU: 5 iters: 1.21378 s: 2.69587 GB/s
PCGAMG:  Solving for pd, Initial residual = 0.00119264, Final residual = 3.68839e-05, No Iterations 5
[1] Building level 0
[0] Building level 0
[2] Building level 0
[3] Building level 0
[0] Building level 1
[1] Building level 1
[2] Building level 1
[3] Building level 1
[1] Building level 2
[2] Building level 2
[0] Building level 2
[3] Building level 2
[1] Building level 3
[2] Building level 3
[3] Building level 3
[0] Building level 3
[1] Building level 4
[2] Building level 4
[0] Building level 4
[3] Building level 4
[1] Building level 5
[2] Building level 5
[0] Building level 5
[1] Building level 6
[3] Building level 5
[1] Building level 7
[2] Building level 6
[1] Building level 8
[0] Building level 6
[1] Building level 9
[1] Building level 10
[1] Building level 11
[1] Building level 12
[1] Building level 13
[1] Building level 14
[3] Building level 6
[2] Building level 7
[2] Building level 8
[0] Building level 7
[2] Building level 9
[3] Building level 7
[2] Building level 10
[2] Building level 11
[2] Building level 12
[0] Building level 8
[2] Building level 13
[2] Building level 14
[0] Building level 9
[3] Building level 8
[0] Building level 10
[0] Building level 11
[0] Building level 12
[0] Building level 13
[0] Building level 14
14 Level construction complete
[3] Building level 9
[3] Building level 10
[3] Building level 11
[3] Building level 12
[3] Building level 13
[3] Building level 14
GPU: 16 iters: 3.46503 s: 3.02191 GB/s
PCGAMG:  Solving for pd, Initial residual = 0.000693692, Final residual = 8.34519e-08, No Iterations 16
time step continuity errors : sum local = 3.8796e-12, global = -3.67006e-24, cumulative = 2.69405e-24
ExecutionTime = 404.52 s  ClockTime = 417 s

Courant Number mean: 2.94977e-05 max: 0.00763858 velocity magnitude: 0.119353
Time = 0.007

MULES: Solving for alpha1
Liquid phase volume fraction = 0.00275421  Min(alpha1) = -2.74524e-30  Max(alpha1) = 1
MULES: Solving for alpha1
Liquid phase volume fraction = 0.00275421  Min(alpha1) = -6.82058e-30  Max(alpha1) = 1
[0] Building level 0
[1] Building level 0
[3] Building level 0
[2] Building level 0
[3] Building level 1
[2] Building level 1
[0] Building level 1
[1] Building level 1
[2] Building level 2
[1] Building level 2
[0] Building level 2
Reconstruction on level 2
Creating AMGLevel 
[0] Building level 3
Reconstruction on level 3
[1] Building level 3
[2] Building level 3
[3] Building level 2
Creating AMGLevel 
[0] Building level 4
Reconstruction on level 4
[1] Building level 4
[2] Building level 4
Creating AMGLevel 
[1] Building level 5
[0] Building level 5
Reconstruction on level 5
[2] Building level 5
[3] Building level 3
Creating AMGLevel 
[1] Building level 6
[0] Building level 6
Reconstruction on level 6
[2] Building level 6
Creating AMGLevel 
[1] Building level 7
[0] Building level 7
Reconstruction on level 7
[2] Building level 7
[1] Building level 8
Creating AMGLevel 
[0] Building level 8
Reconstruction on level 8
[2] Building level 8
[1] Building level 9
Creating AMGLevel 
[0] Building level 9
Reconstruction on level 9
[1] Building level 10
Creating AMGLevel 
[0] Building level 10
Reconstruction on level 10
[2] Building level 9
[1] Building level 11
Creating AMGLevel 
[0] Building level 11
Reconstruction on level 11
[1] Building level 12
Creating AMGLevel 
[0] Building level 12
Reconstruction on level 12
[1] Building level 13
Creating AMGLevel 
[0] Building level 13
Reconstruction on level 13
[1] Building level 14
[2] Building level 10
Creating AMGLevel 
[0] Building level 14
Reconstruction on level 14
Creating AMGLevel 
14 Level construction complete
[2] Building level 11
[2] Building level 12
[2] Building level 13
[2] Building level 14
[3] Building level 4
[3] Building level 5
[3] Building level 6
[3] Building level 7
[3] Building level 8
[3] Building level 9
[3] Building level 10
[3] Building level 11
[3] Building level 12
[3] Building level 13
[3] Building level 14
GPU: 5 iters: 1.16389 s: 2.81143 GB/s
PCGAMG:  Solving for pd, Initial residual = 0.00231984, Final residual = 8.6974e-05, No Iterations 5
[0] Building level 0
[1] Building level 0
[3] Building level 0
[2] Building level 0
[0] Building level 1
[1] Building level 1
[2] Building level 1
[3] Building level 1
[1] Building level 2
[2] Building level 2
[0] Building level 2
[3] Building level 2
[1] Building level 3
[0] Building level 3
[2] Building level 3
[3] Building level 3
[1] Building level 4
[0] Building level 4
[2] Building level 4
[3] Building level 4
[1] Building level 5
[0] Building level 5
[2] Building level 5
[3] Building level 5
[1] Building level 6
[0] Building level 6
[1] Building level 7
[2] Building level 6
[0] Building level 7
[1] Building level 8
[1] Building level 9
[1] Building level 10
[3] Building level 6
[1] Building level 11
[0] Building level 8
[1] Building level 12
[1] Building level 13
[1] Building level 14
[0] Building level 9
[2] Building level 7
[0] Building level 10
[0] Building level 11
[0] Building level 12
[0] Building level 13
[0] Building level 14
14 Level construction complete
[2] Building level 8
[3] Building level 7
[2] Building level 9
[2] Building level 10
[2] Building level 11
[2] Building level 12
[3] Building level 8
[2] Building level 13
[2] Building level 14
[3] Building level 9
[3] Building level 10
[3] Building level 11
[3] Building level 12
[3] Building level 13
[3] Building level 14
GPU: 7 iters: 1.56938 s: 2.91902 GB/s
PCGAMG:  Solving for pd, Initial residual = 0.00107859, Final residual = 5.21651e-05, No Iterations 7
[0] Building level 0
[1] Building level 0
[2] Building level 0
[3] Building level 0
[1] Building level 1
[0] Building level 1
[3] Building level 1
[2] Building level 1
[1] Building level 2
[2] Building level 2
[0] Building level 2
[3] Building level 2
[1] Building level 3
[2] Building level 3
[0] Building level 3
[3] Building level 3
[1] Building level 4
[0] Building level 4
[2] Building level 4
[3] Building level 4
[1] Building level 5
[0] Building level 5
[2] Building level 5
[1] Building level 6
[3] Building level 5
[0] Building level 6
[1] Building level 7
[2] Building level 6
[1] Building level 8
[1] Building level 9
[0] Building level 7
[1] Building level 10
[1] Building level 11
[1] Building level 12
[1] Building level 13
[1] Building level 14
[3] Building level 6
[2] Building level 7
[0] Building level 8
[0] Building level 9
[2] Building level 8
[0] Building level 10
[0] Building level 11
[0] Building level 12
[0] Building level 13
[0] Building level 14
14 Level construction complete
[2] Building level 9
[3] Building level 7
[2] Building level 10
[2] Building level 11
[2] Building level 12
[2] Building level 13
[2] Building level 14
[3] Building level 8
[3] Building level 9
[3] Building level 10
[3] Building level 11
[3] Building level 12
[3] Building level 13
[3] Building level 14
GPU: 43 iters: 8.4923 s: 3.31369 GB/s
PCGAMG:  Solving for pd, Initial residual = 0.000553643, Final residual = 8.60417e-08, No Iterations 43
time step continuity errors : sum local = 3.99247e-12, global = -5.75972e-24, cumulative = -3.06567e-24
ExecutionTime = 462.72 s  ClockTime = 476 s

Courant Number mean: 3.46185e-05 max: 0.00834622 velocity magnitude: 0.13041
Time = 0.008

MULES: Solving for alpha1
Liquid phase volume fraction = 0.00275421  Min(alpha1) = -6.01822e-30  Max(alpha1) = 1
MULES: Solving for alpha1
Liquid phase volume fraction = 0.00275421  Min(alpha1) = -1.03889e-29  Max(alpha1) = 1
[1] Building level 0
[0] Building level 0
[2] Building level 0
[3] Building level 0
[1] Building level 1
[0] Building level 1
[2] Building level 1
[3] Building level 1
[1] Building level 2
[0] Building level 2
Reconstruction on level 2
[2] Building level 2
Creating AMGLevel 
[0] Building level 3
Reconstruction on level 3
[1] Building level 3
[2] Building level 3
[3] Building level 2
Creating AMGLevel 
[0] Building level 4
Reconstruction on level 4
[1] Building level 4
[2] Building level 4
Creating AMGLevel 
[0] Building level 5
Reconstruction on level 5
[1] Building level 5
[2] Building level 5
Creating AMGLevel 
[3] Building level 3
[0] Building level 6
Reconstruction on level 6
[1] Building level 6
[2] Building level 6
Creating AMGLevel 
[0] Building level 7
Reconstruction on level 7
[1] Building level 7
[2] Building level 7
Creating AMGLevel 
[0] Building level 8
Reconstruction on level 8
[1] Building level 8
Creating AMGLevel 
[0] Building level 9
Reconstruction on level 9
[2] Building level 8
[1] Building level 9
Creating AMGLevel 
[0] Building level 10
Reconstruction on level 10
Creating AMGLevel 
[0] Building level 11
Reconstruction on level 11
[1] Building level 10
Creating AMGLevel 
[0] Building level 12
Reconstruction on level 12
[2] Building level 9
Creating AMGLevel 
[0] Building level 13
Reconstruction on level 13
[1] Building level 11
Creating AMGLevel 
[0] Building level 14
Reconstruction on level 14
Creating AMGLevel 
14 Level construction complete
[1] Building level 12
[1] Building level 13
[2] Building level 10
[1] Building level 14
[2] Building level 11
[2] Building level 12
[2] Building level 13
[2] Building level 14
[3] Building level 4
[3] Building level 5
[3] Building level 6
[3] Building level 7
[3] Building level 8
[3] Building level 9
[3] Building level 10
[3] Building level 11
[3] Building level 12
[3] Building level 13
[3] Building level 14
GPU: 4 iters: 1.01926 s: 2.56828 GB/s
PCGAMG:  Solving for pd, Initial residual = 0.0023663, Final residual = 0.00010736, No Iterations 4
[1] Building level 0
[0] Building level 0
[2] Building level 0
[3] Building level 0
[0] Building level 1
[1] Building level 1
[2] Building level 1
[3] Building level 1
[2] Building level 2
[1] Building level 2
[0] Building level 2
[3] Building level 2
[2] Building level 3
[0] Building level 3
[1] Building level 3
[3] Building level 3
[1] Building level 4
[0] Building level 4
[2] Building level 4
[3] Building level 4
[1] Building level 5
[0] Building level 5
[2] Building level 5
[3] Building level 5
[1] Building level 6
[0] Building level 6
[1] Building level 7
[2] Building level 6
[1] Building level 8
[0] Building level 7
[3] Building level 6
[1] Building level 9
[1] Building level 10
[1] Building level 11
[1] Building level 12
[1] Building level 13
[1] Building level 14
[0] Building level 8
[2] Building level 7
[0] Building level 9
[0] Building level 10
[0] Building level 11
[0] Building level 12
[0] Building level 13
[2] Building level 8
[0] Building level 14
14 Level construction complete
[3] Building level 7
[2] Building level 9
[2] Building level 10
[2] Building level 11
[2] Building level 12
[2] Building level 13
[3] Building level 8
[2] Building level 14
[3] Building level 9
[3] Building level 10
[3] Building level 11
[3] Building level 12
[3] Building level 13
[3] Building level 14
GPU: 7 iters: 1.59733 s: 2.86794 GB/s
PCGAMG:  Solving for pd, Initial residual = 0.0010816, Final residual = 4.60643e-05, No Iterations 7
[0] Building level 0
[1] Building level 0
[3] Building level 0
[2] Building level 0
[0] Building level 1
[1] Building level 1
[3] Building level 1
[2] Building level 1
[1] Building level 2
[2] Building level 2
[0] Building level 2
[3] Building level 2
[1] Building level 3
[2] Building level 3
[0] Building level 3
[3] Building level 3
[1] Building level 4
[0] Building level 4
[2] Building level 4
[3] Building level 4
[1] Building level 5
[0] Building level 5
[2] Building level 5
[1] Building level 6
[3] Building level 5
[0] Building level 6
[1] Building level 7
[1] Building level 8
[2] Building level 6
[1] Building level 9
[0] Building level 7
[1] Building level 10
[1] Building level 11
[1] Building level 12
[1] Building level 13
[1] Building level 14
[3] Building level 6
[0] Building level 8
[2] Building level 7
[0] Building level 9
[0] Building level 10
[0] Building level 11
[0] Building level 12
[0] Building level 13
[0] Building level 14
14 Level construction complete
[3] Building level 7
[2] Building level 8
[2] Building level 9
[2] Building level 10
[2] Building level 11
[3] Building level 8
[2] Building level 12
[2] Building level 13
[2] Building level 14
[3] Building level 9
[3] Building level 10
[3] Building level 11
[3] Building level 12
[3] Building level 13
[3] Building level 14
GPU: 22 iters: 4.59975 s: 3.13009 GB/s
PCGAMG:  Solving for pd, Initial residual = 0.00046099, Final residual = 8.02699e-08, No Iterations 22
time step continuity errors : sum local = 3.71084e-12, global = 4.08317e-25, cumulative = -2.65736e-24
ExecutionTime = 516.7 s  ClockTime = 531 s

Courant Number mean: 3.97536e-05 max: 0.0090393 velocity magnitude: 0.140325
Time = 0.009

MULES: Solving for alpha1
Liquid phase volume fraction = 0.00275421  Min(alpha1) = -1.35197e-29  Max(alpha1) = 1
MULES: Solving for alpha1
Liquid phase volume fraction = 0.00275421  Min(alpha1) = -3.01652e-29  Max(alpha1) = 1
[1] Building level 0
[0] Building level 0
[2] Building level 0
[3] Building level 0
[1] Building level 1
[0] Building level 1
Reconstruction on level 1
[3] Building level 1
[2] Building level 1
[1] Building level 2
[2] Building level 2
Creating AMGLevel 
[0] Building level 2
Reconstruction on level 2
[3] Building level 2
[1] Building level 3
Creating AMGLevel 
[0] Building level 3
Reconstruction on level 3
[2] Building level 3
[3] Building level 3
Creating AMGLevel 
[1] Building level 4
[0] Building level 4
Reconstruction on level 4
[3] Building level 4
[2] Building level 4
Creating AMGLevel 
[1] Building level 5
[0] Building level 5
Reconstruction on level 5
[3] Building level 5
[2] Building level 5
[1] Building level 6
Creating AMGLevel 
[0] Building level 6
Reconstruction on level 6
[3] Building level 6
[2] Building level 6
[1] Building level 7
Creating AMGLevel 
[0] Building level 7
Reconstruction on level 7
[1] Building level 8
[3] Building level 7
Creating AMGLevel 
[0] Building level 8
Reconstruction on level 8
[2] Building level 7
[1] Building level 9
Creating AMGLevel 
[0] Building level 9
Reconstruction on level 9
[1] Building level 10
Creating AMGLevel 
[0] Building level 10
Reconstruction on level 10
[3] Building level 8
[1] Building level 11
[1] Building level 12
Creating AMGLevel 
[0] Building level 11
Reconstruction on level 11
[1] Building level 13
[2] Building level 8
[1] Building level 14
Creating AMGLevel 
[0] Building level 12
Reconstruction on level 12
Creating AMGLevel 
[0] Building level 13
Reconstruction on level 13
Creating AMGLevel 
[0] Building level 14
Reconstruction on level 14
Creating AMGLevel 
14 Level construction complete
[3] Building level 9
[2] Building level 9
[3] Building level 10
[3] Building level 11
[2] Building level 10
[3] Building level 12
[3] Building level 13
[2] Building level 11
[3] Building level 14
[2] Building level 12
[2] Building level 13
[2] Building level 14
GPU: 4 iters: 0.998819 s: 2.62085 GB/s
PCGAMG:  Solving for pd, Initial residual = 0.00242357, Final residual = 9.72915e-05, No Iterations 4
[1] Building level 0
[0] Building level 0
[2] Building level 0
[3] Building level 0
[0] Building level 1
[1] Building level 1
[2] Building level 1
[3] Building level 1
[0] Building level 2
[1] Building level 2
[2] Building level 2
[3] Building level 2
[0] Building level 3
[1] Building level 3
[2] Building level 3
[3] Building level 3
[0] Building level 4
[1] Building level 4
[2] Building level 4
[3] Building level 4
[0] Building level 5
[1] Building level 5
[2] Building level 5
[0] Building level 6
[1] Building level 6
[3] Building level 5
[0] Building level 7
[1] Building level 7
[2] Building level 6
[0] Building level 8
[1] Building level 8
[0] Building level 9
[1] Building level 9
[0] Building level 10
[0] Building level 11
[1] Building level 10
[0] Building level 12
[0] Building level 13
[0] Building level 14
14 Level construction complete
[1] Building level 11
[1] Building level 12
[1] Building level 13
[1] Building level 14
[3] Building level 6
[2] Building level 7
[2] Building level 8
[2] Building level 9
[2] Building level 10
[3] Building level 7
[2] Building level 11
[2] Building level 12
[2] Building level 13
[2] Building level 14
[3] Building level 8
[3] Building level 9
[3] Building level 10
[3] Building level 11
[3] Building level 12
[3] Building level 13
[3] Building level 14
GPU: 5 iters: 1.19985 s: 2.72717 GB/s
PCGAMG:  Solving for pd, Initial residual = 0.00101702, Final residual = 3.624e-05, No Iterations 5
[0] Building level 0
[1] Building level 0
[2] Building level 0
[3] Building level 0
[0] Building level 1
[1] Building level 1
[3] Building level 1
[2] Building level 1
[0] Building level 2
[1] Building level 2
[2] Building level 2
[3] Building level 2
[0] Building level 3
[1] Building level 3
[2] Building level 3
[3] Building level 3
[0] Building level 4
[1] Building level 4
[2] Building level 4
[3] Building level 4
[0] Building level 5
[1] Building level 5
[0] Building level 6
[2] Building level 5
[1] Building level 6
[3] Building level 5
[0] Building level 7
[1] Building level 7
[0] Building level 8
[0] Building level 9
[1] Building level 8
[0] Building level 10
[0] Building level 11
[0] Building level 12
[0] Building level 13
[0] Building level 14
[1] Building level 9
14 Level construction complete
[2] Building level 6
[1] Building level 10
[1] Building level 11
[1] Building level 12
[1] Building level 13
[1] Building level 14
[3] Building level 6
[2] Building level 7
[2] Building level 8
[3] Building level 7
[2] Building level 9
[2] Building level 10
[2] Building level 11
[2] Building level 12
[2] Building level 13
[2] Building level 14
[3] Building level 8
[3] Building level 9
[3] Building level 10
[3] Building level 11
[3] Building level 12
[3] Building level 13
[3] Building level 14
GPU: 14 iters: 2.98533 s: 3.06905 GB/s
PCGAMG:  Solving for pd, Initial residual = 0.000364988, Final residual = 9.46165e-08, No Iterations 14
time step continuity errors : sum local = 4.35848e-12, global = -2.26211e-24, cumulative = -4.91947e-24
ExecutionTime = 568.61 s  ClockTime = 584 s

Courant Number mean: 4.49082e-05 max: 0.00972005 velocity magnitude: 0.149331
Time = 0.01

MULES: Solving for alpha1
Liquid phase volume fraction = 0.00275421  Min(alpha1) = -2.83682e-29  Max(alpha1) = 1
MULES: Solving for alpha1
Liquid phase volume fraction = 0.00275421  Min(alpha1) = -4.87863e-29  Max(alpha1) = 1
[0] Building level 0
[1] Building level 0
[3] Building level 0
[2] Building level 0
[1] Building level 1
[0] Building level 1
Reconstruction on level 1
[2] Building level 1
[3] Building level 1
[1] Building level 2
[1] Building level 3
Creating AMGLevel 
[0] Building level 2
Reconstruction on level 2
[2] Building level 2
[3] Building level 2
[1] Building level 4
[1] Building level 5
Creating AMGLevel 
[0] Building level 3
Reconstruction on level 3
[2] Building level 3
[3] Building level 3
[1] Building level 6
[1] Building level 7
[1] Building level 8
[1] Building level 9
[1] Building level 10
[1] Building level 11
[1] Building level 12
[1] Building level 13
[1] Building level 14
Creating AMGLevel 
[0] Building level 4
Reconstruction on level 4
[2] Building level 4
[3] Building level 4
Creating AMGLevel 
[0] Building level 5
Reconstruction on level 5
[2] Building level 5
[3] Building level 5
Creating AMGLevel 
[0] Building level 6
Reconstruction on level 6
[3] Building level 6
[2] Building level 6
Creating AMGLevel 
[0] Building level 7
Reconstruction on level 7
Creating AMGLevel 
[0] Building level 8
Reconstruction on level 8
[2] Building level 7
[3] Building level 7
Creating AMGLevel 
[0] Building level 9
Reconstruction on level 9
Creating AMGLevel 
[0] Building level 10
Reconstruction on level 10
Creating AMGLevel 
[0] Building level 11
Reconstruction on level 11
[2] Building level 8
[3] Building level 8
Creating AMGLevel 
[0] Building level 12
Reconstruction on level 12
Creating AMGLevel 
[0] Building level 13
Reconstruction on level 13
Creating AMGLevel 
[0] Building level 14
Reconstruction on level 14
Creating AMGLevel 
14 Level construction complete
[3] Building level 9
[2] Building level 9
[3] Building level 10
[2] Building level 10
[3] Building level 11
[2] Building level 11
[3] Building level 12
[2] Building level 12
[3] Building level 13
[2] Building level 13
[3] Building level 14
[2] Building level 14
GPU: 4 iters: 1.0231 s: 2.55865 GB/s
PCGAMG:  Solving for pd, Initial residual = 0.00258777, Final residual = 0.000100395, No Iterations 4
[0] Building level 0
[1] Building level 0
[2] Building level 0
[3] Building level 0
[1] Building level 1
[0] Building level 1
[2] Building level 1
[3] Building level 1
[2] Building level 2
[1] Building level 2
[0] Building level 2
[3] Building level 2
[2] Building level 3
[0] Building level 3
[3] Building level 3
[1] Building level 3
[2] Building level 4
[1] Building level 4
[0] Building level 4
[3] Building level 4
[2] Building level 5
[0] Building level 5
[1] Building level 5
[3] Building level 5
[2] Building level 6
[0] Building level 6
[1] Building level 6
[3] Building level 6
[2] Building level 7
[0] Building level 7
[1] Building level 7
[2] Building level 8
[0] Building level 8
[2] Building level 9
[3] Building level 7
[1] Building level 8
[2] Building level 10
[2] Building level 11
[0] Building level 9
[2] Building level 12
[2] Building level 13
[1] Building level 9
[2] Building level 14
[0] Building level 10
[1] Building level 10
[0] Building level 11
[1] Building level 11
[0] Building level 12
[3] Building level 8
[0] Building level 13
[1] Building level 12
[0] Building level 14
14 Level construction complete
[1] Building level 13
[1] Building level 14
[3] Building level 9
[3] Building level 10
[3] Building level 11
[3] Building level 12
[3] Building level 13
[3] Building level 14
GPU: 5 iters: 1.23178 s: 2.65646 GB/s
PCGAMG:  Solving for pd, Initial residual = 0.000999799, Final residual = 3.99497e-05, No Iterations 5
[1] Building level 0
[0] Building level 0
[3] Building level 0
[2] Building level 0
[3] Building level 1
[2] Building level 1
[0] Building level 1
[1] Building level 1
[2] Building level 2
[3] Building level 2
[1] Building level 2
[0] Building level 2
[2] Building level 3
[3] Building level 3
[1] Building level 3
[0] Building level 3
[2] Building level 4
[3] Building level 4
[1] Building level 4
[0] Building level 4
[2] Building level 5
[3] Building level 5
[1] Building level 5
[0] Building level 5
[2] Building level 6
[3] Building level 6
[1] Building level 6
[2] Building level 7
[0] Building level 6
[2] Building level 8
[3] Building level 7
[1] Building level 7
[2] Building level 9
[2] Building level 10
[2] Building level 11
[2] Building level 12
[2] Building level 13
[2] Building level 14
[0] Building level 7
[3] Building level 8
[1] Building level 8
[3] Building level 9
[1] Building level 9
[3] Building level 10
[0] Building level 8
[1] Building level 10
[3] Building level 11
[3] Building level 12
[3] Building level 13
[1] Building level 11
[3] Building level 14
[1] Building level 12
[1] Building level 13
[1] Building level 14
[0] Building level 9
[0] Building level 10
[0] Building level 11
[0] Building level 12
[0] Building level 13
[0] Building level 14
14 Level construction complete
GPU: 14 iters: 3.06044 s: 2.99373 GB/s
PCGAMG:  Solving for pd, Initial residual = 0.000321586, Final residual = 9.50174e-08, No Iterations 14
time step continuity errors : sum local = 4.3517e-12, global = -8.95569e-24, cumulative = -1.38752e-23
ExecutionTime = 620.43 s  ClockTime = 637 s

End

Finalising parallel run
